%nproc=
%Mem=
# TD=(NStates=1) B3LYP/6-31G(d,p)  

ABSSPCT

0 1
6   -0.21279712931710  1.33214236888727  0.04377362812784
6   1.07662388441003  0.89206733499897  -0.00174913490325
6   1.33917796356823  -0.45145058489470  -0.03058853535317
6   0.24253891995592  -1.36271937635392  0.02326187782822
6   -1.01425782446488  -0.84050375902278  0.06171859336331
6   -1.39190000728484  0.41963758892347  -0.10468475343970
1   -0.45829339740386  2.42736568566666  0.11618546536283
1   -2.44777793814129  0.85494796955853  -0.10898646845269
1   -1.93882443055237  -1.47849541589505  0.20671755181303
1   0.38834033818110  -2.44656468049430  -0.21131166468468
1   2.34643498363302  -0.88246585816558  -0.13684664000339
1   1.65471300264125  1.71991245172101  0.16048382617817





