%nproc=4
%Mem=
# TD=(NStates=1) B3LYP/6-31G(d,p)  

ABSSPCT

0 1
6   -0.25745757857272  1.37626855403255  0.02217799947581
6   1.06787676540369  0.91704615137023  -0.01330184831032
6   1.35120719789951  -0.44253624237850  0.02233748974314
6   0.25615507548835  -1.37382338828386  -0.04717882502219
6   -1.07846848088196  -0.91130956402839  0.00622567346965
6   -1.30358382578055  0.44267894009694  0.00305143257722
1   -0.61127368111164  2.38304728806299  -0.22240598288230
1   -2.27011091851961  0.82668109289038  0.07040553164438
1   -2.00899749974770  -1.58827725276080  0.05403027629652
1   0.33596136632633  -2.25286638725673  0.04911434802954
1   2.24049780101021  -1.01271853260000  0.13208624267790
1   1.89951598456689  1.55547890237727  0.00077127661077





