%nproc=
%Mem=
# TD=(NStates=1) B3LYP/6-31G(d,p)  

ABSSPCT

0 1
6   -0.23759118023449  1.38752085868659  -0.04196112397258
6   1.04280712170299  0.91300586966015  0.03917252348438
6   1.27398890281324  -0.45196234877097  0.05095003620516
6   0.19206325871051  -1.36576919615589  -0.09388099771299
6   -1.03981727605244  -0.93718506722851  0.05358160282605
6   -1.24751180651321  0.46539816072225  0.00172146015762
1   -0.53466105854015  2.50371095971510  -0.06860386065969
1   -2.15773216452365  0.78192813808287  0.03649300797569
1   -1.71038626770684  -1.74293884000170  0.10124413903263
1   0.50929033088241  -2.43101742116505  -0.11360388044102
1   2.33762354270825  -0.89902195505258  0.10352066866343
1   1.75689313113005  1.64781523032211  -0.18393466681715





