%nproc=
%Mem=
# TD=(NStates=1) B3LYP/6-31G(d,p)  

ABSSPCT

0 1
6   -0.19990512238363  1.37377202159182  0.01152281795505
6   1.08386747820295  0.99790774219491  0.00772092798771
6   1.31211937013012  -0.48070733407946  -0.01629581936107
6   0.25719333835757  -1.39732550069179  0.02371436224915
6   -1.08177723278394  -0.93758371366894  -0.03206788486317
6   -1.36634344996334  0.43110501880975  0.00706050598094
1   -0.32830142638014  2.46519983757634  0.11090624115669
1   -2.35289092132577  0.74011396937654  -0.18972045824560
1   -1.84638314447276  -1.47149081147013  0.18305671205290
1   0.42171297903591  -2.27495691855855  -0.00517684553836
1   2.21965812910144  -0.94443346344895  0.00260892842949
1   1.84880080114417  1.64433807873262  -0.11086072987807





