%nproc=4
%Mem=
# TD=(NStates=1) B3LYP/6-31G(d,p)  

ABSSPCT

0 1
6   -0.25362645156474  1.37280151360319  0.05606415174053
6   1.05205796958012  0.96673637485524  -0.10835298650669
6   1.28914616890813  -0.43043610030871  0.04052377831033
6   0.21989996918580  -1.42887164569748  -0.00637033070557
6   -1.04336925857832  -0.89170111580987  -0.09506534689024
6   -1.28141839641863  0.44660606743957  0.01477686188087
1   -0.38195059706691  2.38437737149160  0.19651796825566
1   -2.20694021637308  0.69313528908966  0.21542034766255
1   -2.03198052391215  -1.58771059486803  0.21879786665519
1   0.53884818930794  -2.42701773905680  0.43646091419275
1   2.34375178479856  -0.87392511407908  0.22111249695700
1   1.93782007632450  1.44159208799201  0.13997336853659





