%nproc=
%Mem=
# TD=(NStates=1) B3LYP/6-31G(d,p)  

ABSSPCT

0 1
6   -0.25014381001792  1.40906457109769  0.00163062051675
6   1.07739694775292  0.84998531925485  -0.04844876014731
6   1.34823788657671  -0.46399274401960  0.04820724726583
6   0.25298528727647  -1.39628874539584  0.03412788838463
6   -1.01906114350633  -0.90315543897641  -0.06029843274979
6   -1.42569890547352  0.48159438510899  0.04249652231303
1   -0.49319585978389  2.60994343836763  -0.08942709460200
1   -2.35520914988905  0.86092113876624  0.13703912318863
1   -1.83467235855236  -1.56642275203285  -0.09731178192520
1   0.60755653982198  -2.47510276720032  -0.06515803526289
1   2.35575761955214  -0.70989628324864  -0.13943460984219
1   1.95224742845459  1.49432702467892  0.06368525019719





