%nproc=4
%Mem=
# TD=(NStates=1) B3LYP/6-31G(d,p)  

ABSSPCT

0 1
6   -0.20482834682485  1.35339536631952  0.03028224919328
6   1.06237873835441  0.92878329839113  0.00870197042810
6   1.25788829221954  -0.43725775290384  -0.01430467894744
6   0.25419363792683  -1.36497003885413  0.03266418606671
6   -1.05799456613557  -0.90034299993290  -0.04656396290475
6   -1.27522525890268  0.40860238655973  -0.02012588456645
1   -0.57997294171606  2.46144016660506  0.03020727499070
1   -2.35340021913917  0.80077618659474  -0.03866218254515
1   -1.92171064258544  -1.60402673674764  0.21533242036340
1   0.23899788510129  -2.41473290725063  0.13391841587123
1   2.23508776795345  -0.74760519269535  -0.18974452624563
1   1.95226878687226  1.60565355948110  -0.01809116211570





