%nproc=4
%Mem=
# TD=(NStates=1) B3LYP/6-31G(d,p)  

ABSSPCT

0 1
6   -0.23956744080189  1.31192620837852  0.03218177778018
6   1.06968867376487  0.87932323705915  0.07016876853416
6   1.31722728909464  -0.52168962516954  -0.06572774039258
6   0.27685470244879  -1.22039722923193  -0.02038252547812
6   -1.04347053001851  -0.92282844307549  0.05211235927150
6   -1.38298181219852  0.45650189233665  -0.07520398949635
1   -0.42100159131310  2.40059932020759  -0.05800929801250
1   -2.49613426312309  1.20491820197435  -0.05469814825834
1   -1.79314181687139  -1.75956963464505  0.02624891040198
1   0.59351137060989  -2.38871091084792  0.30746534355732
1   2.26900677432193  -0.91928341736703  -0.13015926784024
1   1.85725594027213  1.60990758094952  -0.06513795643245





