%nproc=
%Mem=
# TD=(NStates=1) B3LYP/6-31G(d,p)  

ABSSPCT

0 1
6   -0.24726023044949  1.32575750812116  -0.02728976859175
6   1.01028987127457  0.84362858463026  -0.01405243662561
6   1.35476469526060  -0.48913016801439  0.07933345465835
6   0.22256053809065  -1.30233826984481  -0.07724511245567
6   -1.07179436409646  -0.88333603379487  0.03305949574866
6   -1.27607673702279  0.49176148937959  0.02494322852245
1   -0.47759027174157  2.37297973130053  -0.03601799563450
1   -2.32914186289030  0.81017188169609  0.05189423724886
1   -1.88117372833804  -1.61194854160081  -0.09467791192765
1   0.71004737849870  -2.41786968058787  -0.03188073823498
1   2.39745333032432  -0.76519160083201  0.01910256162689
1   1.67393843664412  1.83674286675917  -0.10817551195064





