%nproc=
%Mem=
# TD=(NStates=1) B3LYP/6-31G(d,p)  

ABSSPCT

0 1
6   -0.24775226462129  1.36472865959912  0.01722098043568
6   1.07266685580632  0.89127433819002  0.00826418357495
6   1.31882667473787  -0.47187178208126  -0.04425200111475
6   0.26569224886392  -1.38996854342862  0.05468673412622
6   -1.00990689822430  -0.85936391052207  0.00691241992769
6   -1.37775906738047  0.49264136746633  -0.00664113570746
1   -0.36696645467388  2.28540164257562  0.05952976348228
1   -2.51223387259400  0.68628171341324  -0.27900175620748
1   -1.68835198974012  -1.67008124957918  -0.06451738090351
1   0.16785335209974  -2.55440908917366  -0.11558409305224
1   2.31862597419128  -0.85294561411032  -0.10720894653462
1   1.76087186891403  1.82811163490682  -0.00873305377665





