%nproc=
%Mem=
# TD=(NStates=1) B3LYP/6-31G(d,p)  

ABSSPCT

0 1
6   -0.22812180356420  1.44589194257358  0.04141041558052
6   1.04179862708395  0.87422424954343  0.02764038474445
6   1.28444025875824  -0.44378901761849  -0.04855093809287
6   0.29588145044865  -1.42107647916513  0.02442446689254
6   -1.08444302351151  -0.94596222977302  0.01462160687757
6   -1.30879463714756  0.45574445730347  -0.07078920111691
1   -0.41691918277240  2.59925927147024  -0.00810456273425
1   -2.22652708934974  0.95896307458136  0.08336424285428
1   -2.01917149982781  -1.69552729147408  0.05426814520513
1   0.50598554494030  -2.45148684361168  0.02591456078538
1   2.30236704682548  -0.70895025256160  0.01855838196207
1   1.91408626686775  1.68211635266992  -0.10291877664372





