%nproc=
%Mem=
# TD=(NStates=1) B3LYP/6-31G(d,p)  

ABSSPCT

0 1
6   -0.26996724600601  1.35228911112139  -0.00457168239973
6   1.03583841571627  0.86441418627131  -0.00894126410564
6   1.31236783862112  -0.43843391772530  0.03528686050836
6   0.27214332145807  -1.36376411984867  -0.05903112388454
6   -1.07542065486828  -0.85877517326072  0.03898293884853
6   -1.24838136458335  0.44808664281813  0.00591571383824
1   -0.78181955880183  2.33042077003903  -0.01949814296847
1   -2.35802634349192  0.90460714812613  -0.16544408194079
1   -1.93828963514153  -1.51147855247554  0.09735756379600
1   0.43277594509502  -2.41630671109422  -0.04235420433963
1   2.44736391278667  -0.91832317550812  0.02218544220787
1   1.87470507688642  1.57937864293309  0.02962491630098





