%nproc=
%Mem=
# TD=(NStates=1) B3LYP/6-31G(d,p)  

ABSSPCT

0 1
6   -0.22956272804055  1.33371265120485  -0.01676021263571
6   1.03359532065274  0.93233725227624  0.05157785260313
6   1.33570510925554  -0.51449167978022  -0.03214361216092
6   0.20688763193532  -1.29784071630530  0.03658839434012
6   -0.99276863335569  -0.87257949033461  0.03908218356120
6   -1.38262962090738  0.40524473775090  -0.06361761426647
1   -0.36991864585983  2.52618174152887  0.06685279462312
1   -2.33552973215871  0.88310466200978  0.07443147536955
1   -1.76470123717439  -1.46042977580289  0.08049430807890
1   0.52773816343874  -2.45558715973737  -0.38709555333782
1   2.36485599524502  -0.77228228829912  -0.03093087992769
1   1.90820230116075  1.38411074403427  -0.10179059818136





