%nproc=4
%Mem=
# TD=(NStates=1) B3LYP/6-31G(d,p)  

ABSSPCT

0 1
6   -0.24164510971343  1.45569817459175  -0.05845604191076
6   1.05374851929268  0.86131505485137  0.03323590846345
6   1.31569218343946  -0.45572354950850  0.06010296015273
6   0.31311513010032  -1.35148172129343  -0.07162653339746
6   -1.07968030864117  -0.97450497590989  0.07357245174816
6   -1.34465684077747  0.48607220868510  -0.03134740789292
1   -0.33407386683555  2.51285846543492  -0.15594528960871
1   -2.31193460510876  0.86976157464443  0.32476976015101
1   -1.87276243249771  -1.72526657284426  -0.04937932077277
1   0.36653321623977  -2.49618450817254  -0.15938728720785
1   2.27316467353797  -0.86195727743830  -0.18671130351530
1   1.69647889317535  1.46434788529874  0.13052120452363





