%nproc=4
%Mem=
# TD=(NStates=1) B3LYP/6-31G(d,p)  

ABSSPCT

0 1
6   -0.24894479003062  1.38434635042412  0.02440668931560
6   1.05309074247606  0.92888630387916  0.00135716950268
6   1.29798005232845  -0.44728792183202  0.01345732409842
6   0.21385035686024  -1.39079613089466  0.00416648372266
6   -1.01027597635147  -0.93621682170718  -0.07706130408901
6   -1.29391947637304  0.47277223808057  0.01618953204836
1   -0.35594895506403  2.47306335537503  -0.18038659920063
1   -2.42509736929491  0.70482206338567  0.30236171516099
1   -1.96530767615856  -1.63043109781208  0.05343257857903
1   0.37343377766692  -2.43609973317622  0.18471580430740
1   2.29043256090600  -0.84086370611889  0.09909281446977
1   1.93031423195985  1.61224855835615  -0.21512647564796





