%nproc=4
%Mem=
# TD=(NStates=1) B3LYP/6-31G(d,p)  

ABSSPCT

0 1
6   -0.25847650765225  1.34271939104941  0.00871530445759
6   1.05381142042534  0.88504669870180  -0.03006348146442
6   1.30774471993728  -0.46384408339618  -0.00405940487565
6   0.27521894710386  -1.38977551214891  0.04870623951613
6   -1.03673677922760  -0.86945352701912  -0.04770831174021
6   -1.34352364384421  0.48973372377616  -0.00345803478456
1   -0.53468195916740  2.54269835027879  0.27485052447101
1   -2.28338094027493  0.79095116036820  -0.00668268167856
1   -1.80184202485986  -1.62457117601555  0.12165126641448
1   0.36230417065208  -2.53984663139559  0.01413135074206
1   2.38410622575392  -0.77809524753389  -0.00609286374561
1   1.91804405616859  1.64659227333475  0.00866599974065





