%nproc=4
%Mem=
# TD=(NStates=1) B3LYP/6-31G(d,p)  

ABSSPCT

0 1
6   -0.24884821133232  1.35818917828748  -0.03787245458831
6   1.00601263405165  0.90005058141837  0.04617114160680
6   1.33603814659339  -0.46045430676966  -0.04618703957465
6   0.18926383419252  -1.33888779120847  0.00739253413442
6   -1.01780439789547  -0.95329936667599  0.03004460324231
6   -1.26837464732224  0.49506388584273  -0.04270161822637
1   -0.47084062570151  2.37997006699489  0.14617783138201
1   -2.36727864382129  0.83843339200616  0.19827055903149
1   -1.70188246927639  -1.65599072838183  -0.02117320570387
1   0.32450300275436  -2.44387941470776  0.13082836136171
1   2.26719012971793  -0.80755634516253  -0.06293567890136
1   1.94992695224225  1.63706400532842  0.15493642648941





