%nproc=4
%Mem=
# TD=(NStates=1) B3LYP/6-31G(d,p)  

ABSSPCT

0 1
6   -0.24303945816579  1.40407042801555  -0.00498703931013
6   1.08867439179706  0.96407663052548  -0.04387236986131
6   1.26601437322672  -0.47095973024239  0.05243016382046
6   0.20354744584139  -1.40316815591728  0.00637705991284
6   -1.09253522955717  -0.97283428671682  -0.06229896548085
6   -1.23617223376662  0.46592333648981  0.02622015507914
1   -0.68954156625285  2.50029445971262  0.04823783617444
1   -2.30132635608590  0.83880323554477  0.35746134811869
1   -1.84710850745793  -1.66995296093171  -0.08421675144333
1   0.61870486630543  -2.41230783658432  0.09757669426279
1   2.43980480209035  -0.73396532447812  0.06333755724659
1   1.95676421690203  1.57554905762861  -0.07540876834835





