%nproc=
%Mem=
# TD=(NStates=1) B3LYP/6-31G(d,p)  

ABSSPCT

0 1
6   -0.29096449428200  1.35015666905200  -0.01151945971617
6   1.02641335878196  0.90651678552420  0.06887358471750
6   1.37161890942938  -0.48660294617733  -0.09642560041341
6   0.28589002230935  -1.35980024310520  0.06654627347715
6   -1.08335192622803  -0.87732229426157  0.00072873139098
6   -1.31532101507822  0.45876477195206  -0.04503900200355
1   -0.34181014201272  2.35957531283361  0.20201969425846
1   -2.38132170037959  0.80542886354166  0.02743389208111
1   -2.00068224395198  -1.41817030190316  -0.11185824846162
1   0.44029917220211  -2.40141128181158  0.25837311303223
1   2.31584089625644  -0.87455055785968  -0.20449249701018
1   2.01233691175987  1.65511939011376  0.01121576359634





