%nproc=
%Mem=
# TD=(NStates=1) B3LYP/6-31G(d,p)  

ABSSPCT

0 1
6   -0.25867308592986  1.41634839348659  -0.08866970454109
6   1.03294973413579  0.93256494903149  0.04073460613834
6   1.31299501339679  -0.47595802172135  0.02190100384247
6   0.25746750482749  -1.39031920694108  -0.07791576174235
6   -1.06741513583063  -0.94419375078123  0.01604436773476
6   -1.31343139529198  0.47671447170396  0.06872083357740
1   -0.49090133912376  2.38905778040849  -0.22650091896252
1   -2.28907370588829  1.00104494220873  0.18284517801403
1   -1.72926786345351  -1.71457468041874  0.05582014556076
1   0.44235031087783  -2.54334434037256  -0.13157432609964
1   2.43518850544249  -0.91740809037742  0.32532697460357
1   2.02817003098301  1.54980057837293  0.05719521690400





