%nproc=
%Mem=
# TD=(NStates=1) B3LYP/6-31G(d,p)  

ABSSPCT

0 1
6   -0.21915922950728  1.36584203034323  0.05618529499101
6   1.07097345165224  0.90913279478286  -0.02895931224519
6   1.28588870199848  -0.42866897264936  -0.02237090744905
6   0.23315576927044  -1.36823302532817  0.05431731520176
6   -1.04963203161589  -0.88914185590196  0.00828604638447
6   -1.30993470655863  0.42604238047331  -0.08388508877809
1   -0.41111560751803  2.34295437269901  0.03932749010694
1   -2.32908265417518  0.81635518124395  0.23792757808621
1   -1.86683492857002  -1.76372242790862  -0.07940543789666
1   0.33991789782020  -2.46376064056572  -0.04694261509482
1   2.20193702157747  -0.66334520272055  -0.06988885136951
1   1.89936799177116  1.52921151114544  0.06787614544018





