%nproc=
%Mem=
# TD=(NStates=1) B3LYP/6-31G(d,p)  

ABSSPCT

0 1
6   -0.29309240554772  1.35039041996825  0.04666904013431
6   1.07527982495588  0.91727654561519  -0.00441185972884
6   1.29371464400320  -0.45449738375742  -0.02570222588554
6   0.25157052214261  -1.41010125801996  -0.00865515651304
6   -1.04467282718109  -0.92463776508081  0.06934479658853
6   -1.29143670459965  0.50380745060565  -0.06797899409546
1   -0.38185088115426  2.53686959778348  -0.08414075410701
1   -2.34009509028464  0.84685817070815  -0.16944406931714
1   -1.92733873173614  -1.65019112776430  0.09806661507072
1   0.34346743880027  -2.42908202654066  -0.17800995604171
1   2.56673036596239  -0.64796547500706  0.00753625825490
1   1.89919287970430  1.51484746475007  0.12044936850919





