%nproc=
%Mem=
# TD=(NStates=1) B3LYP/6-31G(d,p)  

ABSSPCT

0 1
6   -0.26737830030270  1.34597644530484  -0.06802400890518
6   1.07202796702861  0.91308692469306  -0.02795367559175
6   1.28812311911498  -0.44887726957695  0.04836385140982
6   0.28439954406773  -1.42571387608180  0.01114261116639
6   -1.07047921941583  -0.86318410535581  -0.03559468755081
6   -1.30847122056273  0.44761975741783  0.06077024616351
1   -0.22723228770009  2.46875743638884  0.32620876583984
1   -2.31828767105075  0.85956581157735  0.21856878681329
1   -1.95132683320180  -1.58573321502605  -0.26574351098331
1   0.39743565520800  -2.39825803218861  -0.01315153810184
1   2.37410273782146  -0.82062880019586  0.11306488587067
1   1.79439952376123  1.88339855053163  -0.13954103185615





