%nproc=4
%Mem=
# TD=(NStates=1) B3LYP/6-31G(d,p)  

ABSSPCT

0 1
6   -0.29915676620932  1.38124555806023  0.00835630370413
6   0.96893912650360  0.84466869860662  0.01995622191084
6   1.34445062269433  -0.52336687147963  -0.05772871742596
6   0.29921994973166  -1.36924258033674  0.07343493076761
6   -1.00537029659394  -0.87893969650519  -0.04625173272795
6   -1.31236632885111  0.50527063015999  0.00970856174652
1   -0.34757121253509  2.65446147954562  -0.14098464973404
1   -2.40298952478641  0.82512396020785  0.01640628859870
1   -1.80257930987451  -1.54038520246994  0.06214988628128
1   0.45833819118579  -2.34722015650073  -0.18847460234400
1   2.19938707634496  -0.76379254591192  0.07944813879712
1   1.97462890471766  1.57246950460239  0.00714843861968





