%nproc=4
%Mem=
# TD=(NStates=1) B3LYP/6-31G(d,p)  

ABSSPCT

0 1
6   -0.31189177695465  1.31572336606552  0.05614903748716
6   1.05237876962657  0.88509571101465  -0.05185947844669
6   1.38752071850805  -0.50643762198000  0.02557040235072
6   0.27127294605740  -1.29769476154971  -0.01874728070218
6   -1.05321966050133  -0.89136500993367  -0.01485510345409
6   -1.35037776615987  0.49970235676555  -0.00948518871744
1   -0.40163143665906  2.30822266485972  -0.05383065370740
1   -2.42622663385991  1.00044529964204  -0.04402554629443
1   -1.90264758668576  -1.62705352365976  0.10043313618090
1   0.46064888362562  -2.37355554486068  0.12491630182204
1   2.41681035115280  -0.98635139146449  0.04214400815906
1   1.87988020210715  1.63391491826703  0.03198915354582





