%nproc=4
%Mem=
# TD=(NStates=1) B3LYP/6-31G(d,p)  

ABSSPCT

0 1
6   -0.28730030721720  1.34468316064618  -0.00582529209297
6   1.06306097218430  0.88518411808915  -0.00934718579335
6   1.35602581411714  -0.47890381180498  -0.01854669444550
6   0.25413887055981  -1.35997656423975  0.01313495071907
6   -1.03198414120046  -0.89213021162121  0.02155487768632
6   -1.34335617337212  0.47590600763068  0.03935116743884
1   -0.32116700727463  2.42451367967882  -0.06270902290088
1   -2.38730502308183  0.86654511315465  -0.25981958097696
1   -1.87993517027632  -1.50328041017721  -0.20269684308323
1   0.30660343184453  -2.36991200582655  -0.11954381020218
1   2.42493787373733  -0.94597934540168  0.04565326128958
1   1.75326638737507  1.87398906437670  0.05449710404808





