%nproc=4
%Mem=
# TD=(NStates=1) B3LYP/6-31G(d,p)  

ABSSPCT

0 1
6   -0.25374778509110  1.37284201496780  -0.01863224344541
6   1.05863540948036  0.92762842143043  0.01993899256096
6   1.30191383972087  -0.46515546867177  0.01961614371906
6   0.24583616047134  -1.41498432945300  -0.01981395291147
6   -1.04714238850723  -0.90948885208989  0.00152656222072
6   -1.33279982327295  0.47435963014675  0.03595583473834
1   -0.37412823636249  2.49096040110644  -0.11262666053363
1   -2.25558977252627  0.96549990995319  0.14034421067202
1   -1.79102500828384  -1.66986560349538  -0.31409975837661
1   0.52975819201631  -2.44260448419651  -0.05362410075128
1   2.42553514918567  -0.80509228102858  0.19819464497537
1   1.82694727823757  1.60761258464576  -0.38254167386869





