%nproc=
%Mem=
# TD=(NStates=1) B3LYP/6-31G(d,p)  

ABSSPCT

0 1
6   -0.26039730639610  1.42432518901165  0.05494186415144
6   1.11771326175665  0.88209359480492  0.02188810615911
6   1.25450891759152  -0.46861644915577  -0.06760007035382
6   0.27632229452173  -1.44342541360070  0.01752079850271
6   -1.01926029823697  -0.87601560984129  0.08076008349931
6   -1.38030684606104  0.47816562635652  -0.07086485594581
1   -0.47971115092995  2.37682157772424  -0.16385825735419
1   -2.43699525063274  0.75261533868237  -0.27679642209673
1   -1.91198665691525  -1.53873730912791  -0.11714588037695
1   0.68123017079038  -2.41519685566224  0.01249132197131
1   2.43688934823028  -0.73974571551202  -0.23240431790154
1   1.86505179629245  1.63426348110563  0.19215629192439





