%nproc=4
%Mem=
# TD=(NStates=1) B3LYP/6-31G(d,p)  

ABSSPCT

0 1
6   -0.32189270645606  1.40623397556793  -0.01256268151107
6   1.07015661131924  0.91764357864650  -0.02833957175753
6   1.35235534586856  -0.48449318889545  0.00371448518909
6   0.26718596402976  -1.38729267063592  0.04068368902453
6   -1.05714115037779  -0.96095444669710  -0.04811753920640
6   -1.32765440517419  0.51779861505817  0.00261297056630
1   -0.34783473522449  2.53371553413084  0.04801263170062
1   -2.33979296790676  0.80419249612868  0.30740848774688
1   -1.98101639978750  -1.69489071493194  0.05657992866499
1   0.42122473795605  -2.39282082179940  -0.07386309149882
1   2.36328965661515  -0.80725101569267  0.07005817508783
1   2.09436098655045  1.40137690762743  0.15539723174901





