%nproc=
%Mem=
# TD=(NStates=1) B3LYP/6-31G(d,p)  

ABSSPCT

0 1
6   -0.30153386016440  1.38528317374186  -0.04188530495196
6   1.00532836643773  0.92103914599488  0.08660555659457
6   1.26478782281395  -0.47628429160293  -0.04619437463337
6   0.26448836276581  -1.38169659672143  0.00687377116249
6   -0.98305784223728  -0.90191438147110  0.00184464771490
6   -1.23546875108769  0.50387614656974  -0.01906232827455
1   -0.51302433003382  2.43319369906999  0.02657291050861
1   -2.30116762070408  0.68546610265996  0.16945781941636
1   -1.79425356947988  -1.63252650365898  0.01257605992711
1   0.25880870379329  -2.50052841529376  0.09201449710651
1   2.20871358751520  -1.11316778030393  -0.03310211446904
1   1.91091397841665  1.56001594523625  -0.14951783714673





