%nproc=
%Mem=
# TD=(NStates=1) B3LYP/6-31G(d,p)  

ABSSPCT

0 1
6   -0.23953738435463  1.39305376280669  -0.01095012457528
6   1.06229684016059  0.92239180844655  0.01666376532896
6   1.24645738443944  -0.47217555578290  -0.03574088533272
6   0.25191740637965  -1.38637412637586  0.02682580645726
6   -1.04580613927682  -0.90936459013654  -0.01548148516161
6   -1.26589324146912  0.46925261085030  0.02920029133788
1   -0.41726352914118  2.44434876650460  -0.07038461084872
1   -2.41873044851513  0.60262852693430  -0.16803390348655
1   -1.80741859060905  -1.63454798239981  0.01141634794438
1   0.45575866662099  -2.42669588333408  0.03558937548995
1   2.27515285298626  -0.64633154891384  -0.09709584731933
1   1.78581067983076  1.46017435538711  0.15004793133981





