%nproc=
%Mem=
# TD=(NStates=1) B3LYP/6-31G(d,p)  

ABSSPCT

0 1
6   -0.28562090856385  1.36940114703246  0.05216571846618
6   1.06880914214624  0.89098456173453  0.02256987153612
6   1.33061724524296  -0.44724813231891  -0.06909929456791
6   0.30565779604780  -1.33471483673510  0.03857648609570
6   -1.12927027450733  -0.90842097083707  0.06257286323164
6   -1.29875557522493  0.43181400149297  -0.09061587226255
1   -0.41666446022086  2.39246442939642  -0.06676848261633
1   -2.30405692306436  0.85589877192069  -0.09357970047591
1   -1.94300313088075  -1.41552395172153  -0.07100268710406
1   0.47175474501905  -2.40952727979156  -0.04531267646394
1   2.33961622472990  -0.90204281557221  -0.16997894243604
1   1.94717788204125  1.46781690453018  0.12032131233416





