%nproc=
%Mem=
# TD=(NStates=1) B3LYP/6-31G(d,p)  

ABSSPCT

0 1
6   -0.27893722311364  1.36653724586376  0.00921147242033
6   1.04656820276986  0.85114295475675  -0.01442035284916
6   1.30498941076238  -0.48164854236284  0.02226826676154
6   0.28733240818407  -1.36523103536217  -0.03550083236363
6   -0.99938462673346  -0.84882963017028  -0.01341781349152
6   -1.33855523026384  0.46783172876562  0.01438891517568
1   -0.51206859747961  2.42692727258073  0.06383098727350
1   -2.35490195932414  0.72449173990708  -0.01578610625515
1   -1.89925416084083  -1.38964794402013  0.06818546617360
1   0.28811689224850  -2.53956095930820  0.14534673415276
1   2.36935630808942  -0.77300062333795  0.14864082304340
1   1.84045575474935  1.71153797625018  -0.13431898080577





