%nproc=
%Mem=
# TD=(NStates=1) B3LYP/6-31G(d,p)  

ABSSPCT

0 1
6   -0.25696693428910  1.42745443249839  -0.01229444554947
6   1.04748413224353  0.87849712118280  -0.05737389306908
6   1.32746509561828  -0.52429595797010  0.01358337702350
6   0.28383313216255  -1.32973798833582  0.02444491634179
6   -1.04026288899499  -0.88723170161223  0.01067932790275
6   -1.36604339430363  0.45482021867765  0.02364135969321
1   -0.34751485019075  2.37018611991463  0.37494425796111
1   -2.37689894997906  0.79705111945014  -0.16524729035430
1   -1.75920275833999  -1.65765335793363  -0.26086411473560
1   0.45349924958840  -2.43936422330903  0.02240654728459
1   2.32700096064600  -0.92975812292872  0.00048641925965
1   1.72040693155078  1.66037084441340  0.05993712550821





