%nproc=
%Mem=
# TD=(NStates=1) B3LYP/6-31G(d,p)  

ABSSPCT

0 1
6   -0.25266602609662  1.37819210632502  0.05745582818147
6   1.02401174914357  0.91376346731091  0.00498389741964
6   1.33916540612351  -0.48063088213784  -0.01555962197440
6   0.27626870931817  -1.44283490615031  0.06988481696362
6   -1.04026580336608  -0.89749308227268  -0.07751930851042
6   -1.35112461933077  0.50726316071460  -0.05111012135350
1   -0.37413562943387  2.48855954783831  0.14530923458626
1   -2.32392526852997  0.92829419551185  0.22059895591139
1   -1.88549534856353  -1.55451717664806  0.01922551241787
1   0.51038076313792  -2.56138084363608  0.28259418102666
1   2.31094915163845  -0.83605294058308  -0.22204066825532
1   1.83351461702278  1.82488640184862  -0.28564149510207





