%nproc=4
%Mem=
# TD=(NStates=1) B3LYP/6-31G(d,p)  

ABSSPCT

0 1
6   -0.25161046759883  1.37999262661019  -0.02306701676612
6   1.00611359703992  0.88932041711346  0.03089774731356
6   1.33040196328079  -0.45037347653121  -0.04322992717689
6   0.23588779522545  -1.36958795334652  -0.03716974538686
6   -0.98056831968220  -0.88056779174473  0.12063893469683
6   -1.32990421198819  0.46689325137288  -0.02758057545996
1   -0.36407618600250  2.47661499604341  -0.17501321509417
1   -2.52859783303912  0.60369102478714  -0.01037587769514
1   -1.78410335512557  -1.54521415998872  -0.38729461823508
1   0.24688017625294  -2.43422611970633  -0.05159474300184
1   2.31565493652089  -0.85961424550381  0.05175090931492
1   1.94991683469687  1.31461311295457  0.21609881674060





