%nproc=4
%Mem=
# TD=(NStates=1) B3LYP/6-31G(d,p)  

ABSSPCT

0 1
6   -0.26642099310220  1.42703866608016  0.03094273053206
6   1.07597294412958  0.87434986906666  -0.06613025322487
6   1.25644405948373  -0.43476068407925  0.01626203189227
6   0.30077178753513  -1.43194939485719  0.01385384586373
6   -1.06749315046698  -0.90281388409361  0.01350700322723
6   -1.30863189818768  0.46260066921880  -0.03892346263697
1   -0.44336488619393  2.36660815211921  0.21314093315816
1   -2.29572708953664  0.85835813048220  0.21110308319756
1   -1.94743853450607  -1.48514791181060  -0.20656252341395
1   0.51014849908966  -2.62790751596404  0.04083005038422
1   2.35032184926500  -0.62759629544236  0.12698361026588
1   1.92809347911286  1.60515921778033  0.02575812988035





