%nproc=
%Mem=
# TD=(NStates=1) B3LYP/6-31G(d,p)  

ABSSPCT

0 1
6   -0.31174609352676  1.37279102968072  -0.05128078522894
6   1.03897809753929  0.90612962688505  0.04964508465427
6   1.35869567807674  -0.49299806662512  -0.03628948631801
6   0.23887198859518  -1.35744848538401  0.02401877329231
6   -1.03954343371398  -0.90447839121925  0.05058669149332
6   -1.28609607455689  0.46372595648470  -0.01406208420147
1   -0.58193419032937  2.40215824174915  0.03016274006357
1   -2.33569358438687  1.01601306435421  -0.13229207762509
1   -1.96691984809677  -1.53590169044516  0.02663447482376
1   0.46138480023135  -2.45616271264199  -0.31605857340458
1   2.40300321443058  -0.87777650504671  -0.14201430857908
1   2.00666616800289  1.57581249331640  0.17444191282261





