%nproc=
%Mem=
# TD=(NStates=1) B3LYP/6-31G(d,p)  

ABSSPCT

0 1
6   -0.22983024110196  1.35202498516468  0.02658526747560
6   1.01694615302065  0.91840049939461  -0.05751724463749
6   1.32938303511813  -0.47198193062209  0.04078743889134
6   0.17289867455992  -1.36724508356318  0.00368610297836
6   -1.01752377082826  -0.85384226628612  0.01404859324319
6   -1.31645023045718  0.41697258881057  -0.04772776214568
1   -0.26139579692257  2.53045552325586  0.17901993473990
1   -2.31979990416850  0.65100735551021  0.11458291841457
1   -1.79637170230351  -1.54334905808064  0.00611331942199
1   0.69115749543388  -2.34471271561298  -0.01687749544095
1   2.34612514474663  -0.84466663746818  -0.12420182209173
1   1.87415339463753  1.62264755845536  0.12947570680372





