%nproc=4
%Mem=
# TD=(NStates=1) B3LYP/6-31G(d,p)  

ABSSPCT

0 1
6   -0.23597259813382  1.37748256020763  -0.00695578597890
6   1.08547720923672  0.89583132385202  -0.02186440197778
6   1.30549903027148  -0.43239339965485  0.03162886637274
6   0.25780224182212  -1.37641861930977  0.00355979530574
6   -1.03826192983879  -0.92552668016552  -0.02462350147108
6   -1.36001629296051  0.47003576075419  0.02915527790104
1   -0.41772055905023  2.53601444166199  -0.14224335006122
1   -2.46161007687297  0.73576674686434  0.05841656121012
1   -1.88381075817677  -1.55768975422372  0.00839553240682
1   0.34991615843454  -2.51738660996462  -0.08153802446083
1   2.36049860406224  -0.86012360556118  -0.08811528571864
1   1.88544089831475  1.57013881365321  0.12029614179574





