%nproc=4
%Mem=
# TD=(NStates=1) B3LYP/6-31G(d,p)  

ABSSPCT

0 1
6   -0.27394422492387  1.38027990259888  -0.01689710751991
6   1.06304064337767  0.88239929304274  0.03129844757458
6   1.34788300689925  -0.46988999225842  -0.00437787541134
6   0.26689136013219  -1.35305606018922  0.05619870842098
6   -1.05797117255436  -0.95101984818416  -0.00873140397187
6   -1.32812975218004  0.48209049050062  -0.01409004121651
1   -0.47838653252290  2.49315458980908  -0.10648222537823
1   -2.42204332170711  0.90863911858927  0.23604360577754
1   -1.93798750014477  -1.59044550610694  -0.23934433689375
1   0.33987669644429  -2.29502033743446  -0.19758405885627
1   2.31753225145059  -0.77679019498089  -0.21807512686508
1   1.99925051462549  1.54284887098924  -0.10882143476767





