%nproc=
%Mem=
# TD=(NStates=1) B3LYP/6-31G(d,p)  

ABSSPCT

0 1
6   -0.24029276388111  1.39492554350295  0.04551384373111
6   1.10156378169707  0.94760554542884  -0.06588885065124
6   1.28282715304494  -0.46990935083457  0.04116901214858
6   0.25676247639694  -1.39243326353625  -0.01277397963483
6   -1.04360209732878  -0.94359861719397  -0.01810419316646
6   -1.32837973919103  0.44842212259475  -0.00725461172992
1   -0.48342678778737  2.58278857586932  0.03638675562327
1   -2.39239675633607  0.81481179335694  0.04749958546857
1   -1.97067716455481  -1.65539449448568  0.06556764294189
1   0.34127348809993  -2.36761356979630  -0.00224938972773
1   2.24721553306029  -0.89131762989784  0.15185922195737
1   1.94324361724652  1.67099555156659  -0.04144147926100





