%nproc=4
%Mem=
# TD=(NStates=1) B3LYP/6-31G(d,p)  

ABSSPCT

0 1
6   -0.26225878691940  1.36143717053417  0.02815646133303
6   1.05711326241216  0.91405021492815  -0.02066760396688
6   1.29562271587318  -0.46758535907990  -0.02627069770163
6   0.24731598021330  -1.34029412617814  -0.03383592595081
6   -1.03838007240871  -0.90071911579514  0.03267807265316
6   -1.28847165477707  0.44064833236816  -0.04406851611422
1   -0.42252105101421  2.45558971189597  0.27404883197183
1   -2.38986414568662  0.75071441310973  0.08155644408299
1   -1.94107969027677  -1.53960328933063  -0.04167454175669
1   0.32120862977635  -2.48154403184578  0.27181176271472
1   2.40680556519027  -0.86024948088344  0.37371328648343
1   1.88092495714288  1.61161207284256  -0.10464212659707





