%nproc=4
%Mem=
# TD=(NStates=1) B3LYP/6-31G(d,p)  

ABSSPCT

0 1
6   -0.28191862394577  1.39885293217338  0.00362391018764
6   1.08976488265786  0.91590813395066  -0.04445461278685
6   1.33858088101870  -0.48132012061360  0.01512504614122
6   0.26093288343455  -1.37008306175637  0.02033071515735
6   -1.07835839157290  -0.89175875498760  0.00250473656634
6   -1.33248959634162  0.43956861494632  0.00415413445411
1   -0.45735131019954  2.42271692811618  0.17024317761332
1   -2.39621967372500  0.79814941505271  -0.05668789807688
1   -1.78577360993991  -1.64951528988563  -0.08602624354794
1   0.41392699167242  -2.37040566797674  -0.10233762059954
1   2.28193258676400  -0.96975080419111  0.02743813310476
1   1.95065147576711  1.61266918827743  0.05188858004975





