%nproc=4
%Mem=
# TD=(NStates=1) B3LYP/6-31G(d,p)  

ABSSPCT

0 1
6   -0.24975630686077  1.42065589730531  0.05127429376687
6   1.02136897426339  0.89544790482516  -0.01997069351998
6   1.31295622542525  -0.46242390160071  -0.05372347859423
6   0.26124119607851  -1.37218159450412  0.06787570767116
6   -1.09232288724331  -0.98345506163623  -0.05387984691121
6   -1.24545520115247  0.46830106903598  -0.00164307944969
1   -0.32784638249827  2.39235474059230  -0.10430534890327
1   -2.29403347374246  0.90979211715152  -0.07813494739286
1   -1.94097471651321  -1.47346454637958  0.08787433202228
1   0.44790668301191  -2.44618805031167  0.07483016548205
1   2.22044152235610  -0.72194231053461  -0.02330002255895
1   1.80220522290707  1.77079095663063  0.15197329229401





