%nproc=4
%Mem=
# TD=(NStates=1) B3LYP/6-31G(d,p)  

ABSSPCT

0 1
6   -0.24055737838302  1.39653610401429  -0.01087201201061
6   1.08352381245965  0.93345180819114  -0.01884042144849
6   1.29328908966637  -0.46250686206919  -0.00046138563747
6   0.24108393878365  -1.39023688946499  -0.01990511558623
6   -1.09019642214105  -0.96036290172103  0.02284266122364
6   -1.29723730809537  0.51131709708530  -0.02288776578987
1   -0.53721413405067  2.44019068278327  0.24119333712785
1   -2.42541457216458  0.77614680176017  0.04820256850411
1   -1.95459909517270  -1.83972936488465  0.06694911802565
1   0.62265210532577  -2.49466407203380  0.10294974954005
1   2.43183840108973  -0.90266911274244  0.09503493680271
1   1.97095920658189  1.70769205592765  0.13912181015059





