%nproc=
%Mem=
# TD=(NStates=1) B3LYP/6-31G(d,p)  

ABSSPCT

0 1
6   -0.25669835468896  1.35686531191163  0.02292161332421
6   1.05615659062125  0.86830108126300  0.03917549227926
6   1.31877923005754  -0.45977890671129  -0.10316061725105
6   0.23927663387492  -1.31098537557162  0.02794807671325
6   -1.06054465072466  -0.91121609957077  0.05956101881851
6   -1.33653102458833  0.46946862292489  -0.05594751782657
1   -0.36618004020602  2.51278134925538  0.04639786182729
1   -2.30856519274575  0.87281627180676  -0.35852913177235
1   -1.74042691923884  -1.75005770565848  0.10003426253929
1   0.64100522757025  -2.46271474055624  0.09838567969700
1   2.34171421619601  -0.88399884261264  -0.13774956904721
1   1.89796045571713  1.52766714002514  0.30931319876385





