%nproc=
%Mem=
# TD=(NStates=1) B3LYP/6-31G(d,p)  

ABSSPCT

0 1
6   -0.26483252182192  1.44166339587118  0.01761220597871
6   1.03461580422322  0.89961381901043  -0.02834130284043
6   1.28130705283306  -0.48769605936229  0.02275305210221
6   0.26373804841009  -1.42822104425534  0.02813422604596
6   -1.05477402040638  -0.89190832776203  0.00083306331266
6   -1.26892805106787  0.45530309001294  -0.04095866447937
1   -0.46031026885306  2.52611045248607  0.14921568212281
1   -2.34991291952283  0.72696010636072  0.21696118865627
1   -1.83525943757865  -1.57242302423413  -0.13412749260022
1   0.52746271659017  -2.52653259151524  -0.10415574140318
1   2.29357565300018  -0.65834719263532  -0.01962247058759
1   1.91665211198161  1.61671074486041  -0.12453461696255





