%nproc=4
%Mem=
# TD=(NStates=1) B3LYP/6-31G(d,p)  

ABSSPCT

0 1
6   -0.23994501234730  1.36132993767091  -0.06039094227764
6   1.06717249383195  0.91705798055288  0.07245535371201
6   1.30679051329177  -0.43815496778359  -0.01666128688977
6   0.21223797096862  -1.40727771323281  -0.03087374128574
6   -1.06004839012537  -0.92099579778137  0.03345766146917
6   -1.28313101529212  0.48550350010481  0.02600782826528
1   -0.49914477881621  2.44127756574190  -0.20184664926867
1   -2.28784090692580  0.77729822172516  -0.09138600440677
1   -1.89933942982948  -1.65234997874273  0.08180784046549
1   0.59860966182275  -2.35884114052037  -0.15615306610398
1   2.30695670741201  -0.80665618480802  -0.04998539109591
1   1.77218833935031  1.65436038709122  0.06526262807448





