%nproc=4
%Mem=
# TD=(NStates=1) B3LYP/6-31G(d,p)  

ABSSPCT

0 1
6   -0.26016086933058  1.39418358413718  -0.02266808449305
6   1.01370297466650  0.96820230994357  0.04997433426870
6   1.24040620523490  -0.47679375215185  -0.02490666479062
6   0.32295243012005  -1.45743581720139  0.01398464632025
6   -1.02681562848131  -0.92351820658436  -0.05628367684316
6   -1.29049282199500  0.49640656880897  0.04751568359180
1   -0.29228224913095  2.39455208258646  -0.16591752372090
1   -2.30349347922673  0.78556877474609  0.05882153575873
1   -2.17587387215702  -1.44982614942096  0.09827003986504
1   0.51508153912690  -2.48484800012484  -0.06177587180943
1   2.15377360320769  -0.68341980914214  0.19673313134185
1   2.10843517666933  1.44904434190220  -0.24705576766572





