%nproc=
%Mem=
# TD=(NStates=1) B3LYP/6-31G(d,p)  

ABSSPCT

0 1
6   -0.21174933334111  1.35809086638693  -0.03413383083868
6   1.11095468439578  0.89440913125430  0.09774069517478
6   1.30269122943643  -0.42174558498094  -0.10366926219303
6   0.24302339947051  -1.36973123398051  0.03404457388400
6   -1.10064657911958  -0.91720378531468  0.05417220735215
6   -1.33502808185550  0.44552391556598  -0.02733584891298
1   -0.55463063019453  2.35772170486732  0.00991279199910
1   -2.37370676731935  0.78050268957395  -0.20385187957528
1   -1.99835997724121  -1.56588703800885  -0.07916202232886
1   0.59368870115423  -2.45039090407784  -0.01346181410350
1   2.23529520624026  -0.77345846385525  -0.13007797125588
1   1.98140037076559  1.81089971549203  0.05381705098894





