%nproc=
%Mem=
# TD=(NStates=1) B3LYP/6-31G(d,p)  

ABSSPCT

0 1
6   -0.27237121506335  1.34609158405877  -0.01551224891972
6   1.11556513960937  0.89821140383854  0.02491850023516
6   1.32703246229643  -0.43551501066767  -0.06077999068260
6   0.27905372245360  -1.36270826759363  0.07126116238701
6   -1.09345288618972  -0.90585241046969  -0.06018511674064
6   -1.36144740337494  0.46174710562231  0.01813467150498
1   -0.39312394674230  2.29973517928162  0.06561535460402
1   -2.38449936008033  0.78783659365766  0.09308670590934
1   -2.08288461553781  -1.39852649347317  -0.02029571824330
1   0.53345498264597  -2.42566608612146  0.11849936189881
1   2.44709614130367  -0.79656921695396  -0.01136693264181
1   1.95170133703974  1.57187376548476  0.04423292831020





