%nproc=
%Mem=
# TD=(NStates=1) B3LYP/6-31G(d,p)  

ABSSPCT

0 1
6   -0.26824216536601  1.38674961361606  -0.00626296726614
6   1.07776304729469  0.88141079566968  0.04287922153984
6   1.36506680595412  -0.48010334595364  -0.05287378779863
6   0.28344102417927  -1.37523344747653  0.00847269274288
6   -1.07351847464612  -0.89794067862673  0.02675874493791
6   -1.34179090911782  0.49412038877439  -0.02449533518197
1   -0.54919470313099  2.45256821400550  0.03672434897547
1   -2.32161762607962  0.82208575067125  -0.06388989976493
1   -1.96168553695714  -1.65852653343350  -0.00610507062969
1   0.38469964304375  -2.51701234675586  0.05679196324897
1   2.27216124510023  -0.94685687137778  0.00538840413186
1   1.66589814132481  1.82312821137022  0.00342775668431





