%nproc=
%Mem=
# TD=(NStates=1) B3LYP/6-31G(d,p)  

ABSSPCT

0 1
6   -0.26225927669300  1.38414492948560  0.00798403482443
6   1.05163854252525  0.93316614852512  -0.04515841990940
6   1.34221047196301  -0.45498828575972  0.03703249932304
6   0.22991628158334  -1.35893685339608  0.01796872727424
6   -1.08138573973597  -0.92159028273772  -0.02517849465822
6   -1.28198398908881  0.41760657791240  0.01812281998709
1   -0.48222946415094  2.49230635616497  -0.03451654880494
1   -2.09485248255226  0.88671945296542  0.12306986927996
1   -1.99822955840802  -1.51810853351847  -0.12485168983810
1   0.43656871959100  -2.51916440166875  -0.08793170848635
1   2.29996432822225  -0.99033538877973  -0.01593852859788
1   1.86042094069040  1.70311030446642  0.01688799319245





