%nproc=
%Mem=
# TD=(NStates=1) B3LYP/6-31G(d,p)  

ABSSPCT

0 1
6   -0.25874535935262  1.38065701295893  0.04086710813444
6   1.05183941928115  0.87544440190805  -0.03923859569052
6   1.41607493151671  -0.46954526391769  0.00951868268711
6   0.25329824390778  -1.34256036871379  -0.02590114281899
6   -1.07860988746707  -0.91176576896019  0.03293398291950
6   -1.36031425157898  0.47375112845506  -0.02776355943508
1   -0.41289683121396  2.45794771566665  -0.08506215649251
1   -2.32836341485331  0.74332631978440  0.04698366699377
1   -2.03997371860480  -1.55539653470670  -0.03002592551954
1   0.30425534745007  -2.56644949086704  -0.07946157941574
1   2.37281050400853  -0.75493071563545  0.23349259659334
1   1.81321851031046  1.66478877025491  0.00649911991917





