%nproc=4
%Mem=
# TD=(NStates=1) B3LYP/6-31G(d,p)  

ABSSPCT

0 1
6   -0.30170009612481  1.35340380385448  0.04702997613466
6   1.01006611258148  0.88076312030168  -0.01296047810301
6   1.38527266268095  -0.50272064853586  -0.02800247255550
6   0.23998460232770  -1.32447365800137  0.01664262397953
6   -1.03581948509508  -0.85996106090478  0.00174283939344
6   -1.28007051837711  0.49090862945127  -0.05011985666133
1   -0.55468480155391  2.27806312603853  0.27033406461724
1   -2.27574016783494  0.68803751883244  0.06387517808794
1   -1.78919780312863  -1.51803359782739  -0.10006743689882
1   0.35091650078701  -2.46773238772204  0.17322670752194
1   2.29927573874825  -0.92408479455323  0.21689713830258
1   1.69130030591748  1.56163573155478  -0.29847837127588





