%nproc=
%Mem=
# TD=(NStates=1) B3LYP/6-31G(d,p)  

ABSSPCT

0 1
6   -0.29901480750217  1.32153221348025  -0.00665297373575
6   1.11537789096468  0.92017963999032  0.04280651285333
6   1.36782910176586  -0.45678648632927  -0.03723629298755
6   0.23149081573829  -1.35362181123165  0.05140175753423
6   -1.07860951988256  -0.87843587193758  -0.05217387186605
6   -1.34317399912040  0.45887195244428  0.01810370601113
1   -0.30154998326274  2.50172184137470  -0.03267573646178
1   -2.33947952481770  0.78484198735668  -0.05854203595891
1   -1.83272759538434  -1.68108004065386  0.04020318346295
1   0.39469742176831  -2.52878979311517  0.10297478550552
1   2.27673247207015  -0.88010904233860  -0.20757302118344
1   1.84658406416541  1.68390356068098  -0.05991787028671





