%nproc=
%Mem=
# TD=(NStates=1) B3LYP/6-31G(d,p)  

ABSSPCT

0 1
6   -0.21483388730762  1.34688663169632  -0.01514138164121
6   1.02388410810196  0.97378831153664  0.00465541333896
6   1.34848341695892  -0.47351233944851  0.03766765667207
6   0.20078221702374  -1.38268266541547  -0.05284380483257
6   -1.07090945289329  -0.92818152712630  0.05658932631156
6   -1.30139877763001  0.44729820295657  -0.02089694334080
1   -0.41326799739059  2.47229975901893  0.01380435090024
1   -2.40949040436195  0.87177863678292  0.09673168807576
1   -1.87449679863893  -1.53232883534823  -0.13641995746129
1   0.46988189582340  -2.55256588816950  -0.02566519950992
1   2.39518005102402  -0.68936618037124  -0.00185622159730
1   1.97817374834725  1.59811827327060  -0.08232286670602





