%nproc=
%Mem=
# TD=(NStates=1) B3LYP/6-31G(d,p)  

ABSSPCT

0 1
6   -0.27503678010668  1.41535091718290  0.01856180779396
6   1.10483756217367  0.95303511237381  -0.01724857235831
6   1.25569790450476  -0.47280276595016  -0.00826676338206
6   0.25273211868591  -1.36293741688132  -0.03586918034566
6   -1.06461462632556  -0.95662100944029  0.01775826389320
6   -1.25913313689424  0.44019027780356  -0.01360864943429
1   -0.51724640669671  2.53526489319171  0.03222060128886
1   -2.20490084964809  0.77142231848209  0.06889160584403
1   -1.97927787621484  -1.59290645971780  -0.01509742241178
1   0.55445842009947  -2.39151350704887  0.18651547422687
1   2.15526532903982  -1.10529667163808  0.23778598470543
1   1.81955123266489  1.64407694029303  0.00895224509298





