%nproc=
%Mem=
# TD=(NStates=1) B3LYP/6-31G(d,p)  

ABSSPCT

0 1
6   -0.25643527526911  1.38296902395336  0.02520833496050
6   1.10668333622369  0.92616865865189  -0.07911344820862
6   1.34117405132557  -0.48814638710120  0.04076426393505
6   0.22395839673148  -1.35993620255026  0.01517554445365
6   -1.08952687833291  -0.96049581329723  0.00022939708802
6   -1.35144046853011  0.47160258030121  0.01279012715326
1   -0.36350190529888  2.56297465421385  -0.07366238606792
1   -2.29497558840149  0.74331932685229  0.07073946160715
1   -1.87210693798390  -1.56107677235501  -0.17819623066131
1   0.63457470393406  -2.36542856623640  -0.23263363558262
1   2.29768372301020  -0.86713571271549  0.10423481052178
1   1.93089570812858  1.82071571990321  0.10821668127244





