%nproc=
%Mem=
# TD=(NStates=1) B3LYP/6-31G(d,p)  

ABSSPCT

0 1
6   -0.25928825576679  1.37308451172819  -0.00935384791180
6   1.02530703930205  0.92240769646062  -0.01384038571054
6   1.32472726306232  -0.44176763805500  -0.00744031047202
6   0.25789908804136  -1.32796163455997  -0.03764101925096
6   -1.08895658141469  -0.96451545102212  0.02481072419086
6   -1.27592062986359  0.45241570562091  -0.00247392145674
1   -0.27409958303065  2.38826337539499  0.13395525585090
1   -2.35484490795678  0.83716814681161  -0.11667152984910
1   -2.00985872354398  -1.55403178998937  0.17379873016623
1   0.41041453750603  -2.37521434954747  0.11688246950312
1   2.35997410863643  -0.91801456019805  0.11655268538951
1   2.04846164038721  1.46253062688915  0.21889861990189





