%nproc=
%Mem=
# TD=(NStates=1) B3LYP/6-31G(d,p)  

ABSSPCT

0 1
6   -0.27983450803510  1.31342215917871  0.01009260430611
6   1.06734599671165  0.89385171399843  0.04774987182795
6   1.35659546731613  -0.46526646085118  -0.06559997369068
6   0.29424373451194  -1.35512606593688  0.02400610975216
6   -1.07405935192252  -0.91560182295895  -0.00347892487175
6   -1.35551911745742  0.50547241501738  -0.01445037067258
1   -0.41186528646511  2.54150498173794  -0.02556758602536
1   -2.32514061543497  0.93107422045104  -0.11189361990030
1   -1.89487131190767  -1.62031544510702  0.02306750899149
1   0.30741627757954  -2.47068923714247  0.19057777020465
1   2.28388115793215  -0.75107909729423  -0.08021696397173
1   1.96576444723947  1.59651449648775  -0.00397014210137





