%nproc=
%Mem=
# TD=(NStates=1) B3LYP/6-31G(d,p)  

ABSSPCT

0 1
6   -0.23532014519799  1.34562624069014  0.02007559419348
6   1.10019075362858  0.93700223127409  -0.01662618714330
6   1.26583178648378  -0.45830702281028  0.00029303522530
6   0.26905369126685  -1.33708257910950  0.01985326785539
6   -1.06776724506315  -0.91134845629682  -0.00345469379338
6   -1.34240262660360  0.46904101872160  -0.01017264685619
1   -0.33517687513440  2.49638382943923  -0.13755254900501
1   -2.38610932958317  0.55353077891040  0.02664792804302
1   -1.92642796405153  -1.63912203502150  0.01116169008819
1   0.60301193890158  -2.49968567623915  -0.11485700937331
1   2.17308286241081  -1.03743283766850  -0.06453880902595
1   1.96182073220424  1.66257116509865  0.11791684880819





