%nproc=4
%Mem=
# TD=(NStates=1) B3LYP/6-31G(d,p)  

ABSSPCT

0 1
6   -0.24968255976256  1.32885317996982  0.01803188892995
6   1.08598324485017  0.92325060100454  0.02576688834818
6   1.32188625724162  -0.45203207149285  -0.00244056010737
6   0.23548949589915  -1.33306355282307  0.00720007940835
6   -1.01404226929668  -0.94668130915928  0.03624132043169
6   -1.35675529457290  0.48404542514610  -0.09119006010437
1   -0.50426362303197  2.27270508182836  0.09130466851785
1   -2.35476507165360  1.04514628083834  0.24251152466683
1   -1.96306436077520  -1.56794517403967  0.01788597709038
1   0.38539483144685  -2.41677632035921  -0.09475324553629
1   2.34552916478755  -0.98652502614039  -0.08073203025610
1   1.81308587149443  1.64517797879159  -0.16086126530240





