%nproc=4
%Mem=
# TD=(NStates=1) B3LYP/6-31G(d,p)  

ABSSPCT

0 1
6   -0.26066634861271  1.35493369087384  -0.04715254244879
6   1.00544932508336  0.89657393455357  -0.00773745685984
6   1.29437570217384  -0.49165213351383  0.07674510692124
6   0.26760885037387  -1.38617323602189  -0.04067174349739
6   -1.03854978791917  -0.87700811543283  0.01259000382262
6   -1.27219042170342  0.47627570305275  0.04084066439002
1   -0.56724032882821  2.42715845110172  0.02087775809705
1   -2.28611252962052  0.78561725051789  0.04319567345317
1   -1.82458594477306  -1.43222990821873  -0.12464948116066
1   0.32109761059005  -2.59024864804300  -0.16457387160604
1   2.41551964823988  -0.62593082722263  -0.05159217309329
1   1.97895203464914  1.73490249662291  -0.13346686435235





