%nproc=
%Mem=
# TD=(NStates=1) B3LYP/6-31G(d,p)  

ABSSPCT

0 1
6   -0.29590987904406  1.39984874334840  -0.04448050396032
6   1.06293121286998  0.91635462728320  -0.00321505443578
6   1.30681657701164  -0.47703654696405  -0.00731552877504
6   0.22996320103337  -1.40309404875368  0.02101597483923
6   -1.01346229032843  -0.92397583403660  -0.03567668615833
6   -1.27027850220193  0.47311910297059  0.02311856469652
1   -0.68544195477450  2.38103655001133  0.41571419797716
1   -2.24848355983255  0.85224570927419  0.05447277348632
1   -2.03309733837380  -1.41936368890876  0.03522139251491
1   0.47577476984334  -2.31114255117996  0.10805647799872
1   2.38866931667148  -0.92537437760581  0.12902398282399
1   1.88597164360210  1.62756817113463  -0.05689055830523





