%nproc=
%Mem=
# TD=(NStates=1) B3LYP/6-31G(d,p)  

ABSSPCT

0 1
6   -0.28729592410135  1.39774692418750  0.10758399034789
6   1.03614308027755  0.87213773068948  -0.04771159563999
6   1.34427752955399  -0.48154638892723  -0.02733461705834
6   0.25201144331104  -1.42635484541242  0.09739378933200
6   -1.03773044678168  -0.89695877022737  -0.06524662960040
6   -1.31456352291179  0.51136843125006  -0.03153078101177
1   -0.35823200042433  2.55163162236197  0.15788269703174
1   -2.37051207580076  0.79113599295550  -0.22040085631190
1   -1.68712631297117  -1.65764978926929  -0.11423292340020
1   0.37076165640258  -2.45785291017814  0.21507676500557
1   2.35549925346925  -0.73694585802723  -0.23513436851573
1   1.79242352121325  1.75981087519452  -0.23505464816430





