%nproc=
%Mem=
# TD=(NStates=1) B3LYP/6-31G(d,p)  

ABSSPCT

0 1
6   -0.28269789921319  1.42473089039914  -0.02383228574218
6   1.10183336810198  0.89869974960239  0.02969320581152
6   1.33221362596450  -0.47427327599845  0.01291247870798
6   0.23813520698256  -1.39088187346370  -0.02174044796874
6   -1.06814624107843  -0.90171242609502  0.05273969438234
6   -1.32044665642766  0.44841159134710  -0.02468140728933
1   -0.31911689741334  2.55720506650081  0.04566144054864
1   -2.37278073535648  0.73507196556451  0.03158133063661
1   -1.81357254686774  -1.70549719163618  -0.09980914915161
1   0.40807717459871  -2.52855988072095  -0.18135771020066
1   2.35226038373256  -0.78224974028731  -0.00379496332367
1   1.72301481963151  1.68557470562088  -0.16120420783626





