%nproc=
%Mem=
# TD=(NStates=1) B3LYP/6-31G(d,p)  

ABSSPCT

0 1
6   -0.20486318224049  1.37992878990015  0.01600584756951
6   1.07464926212947  0.88239424364025  0.02179991114872
6   1.30550582835417  -0.45267758529824  -0.06409000228508
6   0.26183581474502  -1.36307771360150  0.05081032264101
6   -1.06528349431700  -0.92009750689911  -0.02966342927488
6   -1.34269018844269  0.47141302611474  0.01640216094491
1   -0.57589740812525  2.35615083013865  -0.17879148653535
1   -2.42856219740365  0.81603726813566  0.05043799473119
1   -1.82737796484374  -1.61659215618767  -0.19706680066600
1   0.44686775354128  -2.48974554793800  0.08430959466526
1   2.18387662488506  -0.70861346330397  0.08796437636198
1   1.83048200086049  1.67089872641276  -0.04611054424864





