%nproc=
%Mem=
# TD=(NStates=1) B3LYP/6-31G(d,p)  

ABSSPCT

0 1
6   -0.24061536246282  1.51478957523041  -0.10392287748843
6   1.05747164969770  0.89971300349123  0.05254640016653
6   1.26942980943283  -0.49422364039705  0.00071494072819
6   0.28590929972696  -1.38418650453016  -0.08241612068364
6   -1.07930682450992  -1.00162545289320  0.07936898047655
6   -1.31970880877572  0.48831050030496  0.02229006899483
1   -0.42160030401884  2.51446271296855  -0.14000282185720
1   -2.35680312070882  0.75154964121253  0.16856783848060
1   -1.76217161339899  -1.73384297773628  0.03130549152711
1   0.46946070649421  -2.56052456478840  -0.16972616974952
1   2.44376833396162  -0.82519221502823  0.19302431365928
1   1.93098277075589  1.55862630458207  0.31059579037599





