%nproc=4
%Mem=
# TD=(NStates=1) B3LYP/6-31G(d,p)  

ABSSPCT

0 1
6   -0.25172796424950  1.34549646402679  0.02735266460362
6   1.05708917616933  0.84970353000531  -0.00859135086555
6   1.30922736062075  -0.44977233412114  -0.01950080034542
6   0.27863805889271  -1.36383763314344  -0.05499540882214
6   -1.08085051493846  -0.85452503824177  0.05945843993981
6   -1.30213444976359  0.44332046481780  -0.03456555410747
1   -0.56980753340748  2.53453811120650  0.02627863968294
1   -2.38665061151402  0.79648285282572  -0.20268740417145
1   -1.87227939212758  -1.57069113887770  0.13910701065878
1   0.42616984561331  -2.38887293718368  0.16473400899479
1   2.41953564645107  -0.70338474939713  0.10037507861835
1   1.90203015460987  1.64103262164671  0.17785176995642





