%nproc=4
%Mem=
# TD=(NStates=1) B3LYP/6-31G(d,p)  

ABSSPCT

0 1
6   -0.23533982552844  1.36971100466011  0.00343179414068
6   1.08177551060139  0.95697725188304  -0.02581213922949
6   1.28913334955749  -0.45938258244004  -0.00894173029145
6   0.26079625682763  -1.37975869705917  0.01056607801573
6   -1.09377532443564  -0.91943515344388  0.02015598936472
6   -1.26669092424355  0.45354183587281  -0.02510105619445
1   -0.60451356329059  2.38607841997178  0.31144388878816
1   -2.35491481504732  0.71628491720679  0.00004193189523
1   -1.86014095360188  -1.60706943713256  -0.06376884213147
1   0.37158032803406  -2.42169020156989  -0.02131856446343
1   2.16013900783816  -0.90178628655075  0.17425720251265
1   1.82751342741489  1.59300679466107  -0.05412109031142





