%nproc=
%Mem=
# TD=(NStates=1) B3LYP/6-31G(d,p)  

ABSSPCT

0 1
6   -0.25767537198319  1.27392582029783  -0.01424401844167
6   1.08373223909789  0.92304118373046  0.06723159797513
6   1.29582543991181  -0.45619876737009  0.01105014299830
6   0.22477158416468  -1.34469607869375  -0.03350241412847
6   -1.05590431232195  -0.89301686421727  0.02868536567417
6   -1.29351347519846  0.43625753252042  -0.00794637234610
1   -0.65474924586935  2.34603138960456  -0.45552829293050
1   -2.21625193091448  1.06087672044551  0.09122619480383
1   -1.98531689338798  -1.47514310531949  -0.02598891194412
1   0.41638564442910  -2.38105162478154  -0.05251324138332
1   2.42685063361975  -0.64397180005594  -0.30324291444746
1   2.08243382601121  1.75127564289490  0.00738597144210





