%nproc=4
%Mem=
# TD=(NStates=1) B3LYP/6-31G(d,p)  

ABSSPCT

0 1
6   -0.21382765768278  1.38913711848748  0.04936930066417
6   1.09890778887468  0.92776874362315  -0.02521207183327
6   1.27108154255455  -0.43190316413981  -0.03574692053132
6   0.21678559410512  -1.34885465472142  0.03820889560993
6   -1.05843166597153  -0.97531259695911  -0.08010774823740
6   -1.33666374511982  0.43248594206150  0.03505398703295
1   -0.43981889975513  2.43065938406495  -0.10113410433837
1   -2.27801301231709  0.84006772249594  -0.00009745136481
1   -1.86754380755489  -1.65504600440339  -0.05105086880679
1   0.46072891555707  -2.33515001547696  0.36982795712337
1   2.32410200754715  -0.80631857072422  0.07252673249248
1   2.08018575188033  1.54275951089246  -0.01255100709106





