%nproc=
%Mem=
# TD=(NStates=1) B3LYP/6-31G(d,p)  

ABSSPCT

0 1
6   -0.25433220019876  1.33271404878653  0.01660588912300
6   1.11232618357668  0.89756397679380  -0.05233439926315
6   1.35828689707446  -0.42653407384219  -0.04115772827555
6   0.20863861788013  -1.36799354061133  0.02387423126586
6   -1.03195053152921  -0.91967184406016  0.02293635152665
6   -1.37044340445732  0.48536980446176  -0.01631220580339
1   -0.48161821772202  2.40935033536690  0.46204226562065
1   -2.38792714728101  0.91090248195333  -0.28362525673874
1   -1.91860008183912  -1.70280530800212  -0.06840777169268
1   0.43155763209895  -2.42902726918135  0.28877109381630
1   2.23979617362078  -0.84444330578141  -0.00521132598561
1   1.84617303954465  1.64842908808335  0.28391865807124





