%nproc=
%Mem=
# TD=(NStates=1) B3LYP/6-31G(d,p)  

ABSSPCT

0 1
6   -0.26580136297926  1.34671265551911  -0.03102322856399
6   1.05052757093778  0.96334716991198  0.02814551310045
6   1.28866564097592  -0.46935040929914  0.03983009220067
6   0.25260382900011  -1.36669903459393  -0.05474923109807
6   -1.06439289664567  -0.96241995726022  0.03818229810528
6   -1.26040293753602  0.49725445901376  -0.03045949483815
1   -0.67030179545228  2.39820523996456  0.02105864881540
1   -2.19172169475092  1.02474554523566  0.19082575399681
1   -1.77280701556093  -1.61723164216847  0.03473918333363
1   0.42295144310193  -2.53764962218954  0.05705182966975
1   2.22793701175847  -0.94102589297972  -0.14793262595656
1   1.94228795545740  1.53236862187786  -0.01106327492696





