%nproc=
%Mem=
# TD=(NStates=1) B3LYP/6-31G(d,p)  

ABSSPCT

0 1
6   -0.25577169627260  1.33373691887873  -0.03289314043372
6   1.11107996573611  0.92808868513366  0.03447912423574
6   1.32697959201974  -0.44418482642888  0.01885445000751
6   0.18682579634737  -1.37161413764605  -0.05684613629636
6   -1.04766796524974  -0.93676679802584  0.01664597778832
6   -1.30893485698780  0.45030928410815  0.04876346014342
1   -0.44255651345706  2.52764610774351  -0.24408376930035
1   -2.44776422978594  0.89217257149832  -0.11061904199362
1   -1.88624182278771  -1.55790625709093  0.09023637290827
1   0.40641688167647  -2.48666694321850  -0.19649575061563
1   2.29839235964657  -0.62468012752786  0.19882618747694
1   1.92601834789694  1.69088087562985  -0.13599315948295





