%nproc=4
%Mem=
# TD=(NStates=1) B3LYP/6-31G(d,p)  

ABSSPCT

0 1
6   -0.26029674728130  1.42750045125092  -0.04875222926935
6   1.03953539442524  0.87810041540345  -0.04377857404925
6   1.28812199814885  -0.46441723510610  0.08912786309188
6   0.25195905889696  -1.40375302063367  -0.02127031555853
6   -1.02615679270379  -0.91639770488593  -0.07851439247281
6   -1.28819464458427  0.46627155232513  0.09574226208810
1   -0.58629120853334  2.37154506383296  -0.13319557378296
1   -2.33690206873318  0.95394755821354  0.21664434827350
1   -1.87170343867137  -1.58537043950180  0.09778166358160
1   0.51980862850082  -2.37341296229238  -0.12333954416405
1   2.37302427252777  -0.81790600601400  0.07123611021532
1   1.85263537117173  1.58590424562611  0.06382547423858





