%nproc=4
%Mem=
# TD=(NStates=1) B3LYP/6-31G(d,p)  

ABSSPCT

0 1
6   -0.23003807997168  1.35203709386352  -0.02445804450819
6   1.03332524865861  0.91312469574970  0.02683381260341
6   1.28762708757913  -0.43932981478156  -0.06086387562851
6   0.27345075334079  -1.40994045767124  0.03706754682064
6   -1.04990516714361  -0.87540595498423  0.00578311750475
6   -1.30048014320657  0.46573380099404  -0.01913824840756
1   -0.61130184775728  2.54828350926948  0.30709476638861
1   -2.25016572426941  0.77995271064183  -0.02257434953400
1   -1.89300250333553  -1.52075635318868  0.00927651108098
1   0.41285762789289  -2.62919580726005  0.04043863599595
1   2.30245658671346  -0.73726817294491  0.10986527898341
1   1.88150747744134  1.48332798821504  0.00385887531618





