%nproc=4
%Mem=
# TD=(NStates=1) B3LYP/6-31G(d,p)  

ABSSPCT

0 1
6   -0.27325308783557  1.40182663883534  0.05460114346634
6   1.07789185559616  0.93057219291883  -0.02059203703303
6   1.33227582503759  -0.57222203093262  -0.05746319065332
6   0.28653810498224  -1.29038663034327  0.03907408373372
6   -1.06312432614477  -0.94515376733438  0.00010553064997
6   -1.34770880435645  0.46220938039871  -0.06638321049037
1   -0.55844233164560  2.40060000673191  0.06843907516017
1   -2.32851808438662  0.86623974063283  0.19850424691093
1   -1.95848704481618  -1.48208867633326  -0.02898902932416
1   0.43422242806754  -2.47010535346244  0.13159084035301
1   2.35065741999410  -0.76742044863762  0.17793105191820
1   1.88629963253132  1.61125336153576  0.06640974730816





