%nproc=4
%Mem=
# TD=(NStates=1) B3LYP/6-31G(d,p)  

ABSSPCT

0 1
6   -0.25388517880138  1.40307431856617  -0.01876265233434
6   1.05554436378703  0.93061687789312  -0.00701132380634
6   1.29455988673850  -0.46357010680094  -0.01521494581271
6   0.24431843873545  -1.41044873081622  0.05370408493707
6   -1.04709527204390  -0.88627653499037  -0.06575451543968
6   -1.29931778450947  0.46296432981831  0.03563896818780
1   -0.47793957938486  2.51738649448423  0.15589329035368
1   -2.22286068366791  0.72266262734872  0.00214155911318
1   -1.90792914483092  -1.77381726827877  0.14175819807975
1   0.46891060380868  -2.47703077324499  -0.14186285042618
1   2.44737243716951  -0.86922996173218  0.15699335715514
1   1.77721922765646  1.46760044929677  -0.06558669728143





