%nproc=4
%Mem=
# TD=(NStates=1) B3LYP/6-31G(d,p)  

ABSSPCT

0 1
6   -0.17500298993605  1.38286650034698  -0.00058855619881
6   1.01457063423566  0.95586334335403  -0.03068663619505
6   1.28103574133483  -0.46508324632087  0.00784704908009
6   0.28500530148800  -1.38560363382049  0.00130869914180
6   -1.08627632154795  -0.87363903549593  -0.02151835916370
6   -1.31844346178214  0.39764045458797  0.00553653496610
1   -0.35924568149547  2.42802840211542  0.10756548512437
1   -2.33580105891259  0.73160981500789  0.15252679472583
1   -1.89055869515787  -1.64268614833289  -0.04390198468513
1   0.34755103938793  -2.48820274880278  0.18094899467691
1   2.21545543190737  -0.77988999591209  0.05032908397533
1   1.98674576626662  1.59288280829354  0.10075371824264





