%nproc=
%Mem=
# TD=(NStates=1) B3LYP/6-31G(d,p)  

ABSSPCT

0 1
6   -0.30089827738497  1.29232102847146  0.04476399311945
6   1.06626098648895  0.91869687991225  0.03440830471135
6   1.28759483202876  -0.48051078418073  -0.06330633465812
6   0.23963307493753  -1.32280519760173  0.02377944369260
6   -1.00150876077024  -0.87490062376236  0.02747040468650
6   -1.31529716713465  0.48596311092011  -0.08592109250395
1   -0.36782966613133  2.37282963809654  0.06904852232621
1   -2.25049473967816  0.76788152989243  -0.06961429972760
1   -1.77788083353631  -1.61936164999218  0.16706128906591
1   0.38067646971185  -2.42496038022040  0.10258869544437
1   2.33082206220209  -0.80868364069842  -0.11050988065444
1   1.95050004999118  1.46441446697973  0.02226360909134





