%nproc=
%Mem=
# TD=(NStates=1) B3LYP/6-31G(d,p)  

ABSSPCT

0 1
6   -0.23833736082129  1.46133421472249  0.05174847461579
6   1.03957913127717  0.87416282865917  -0.00247392503836
6   1.33808315921668  -0.49188498791150  -0.01169477695190
6   0.30971686629540  -1.40885454263801  -0.00349920213195
6   -1.10791249526828  -0.93236792624726  0.02847986977314
6   -1.31790164411980  0.50062779491379  -0.05486358613167
1   -0.44021284534760  2.41925161530053  -0.11753816956325
1   -2.49181748165149  0.65710563671177  -0.00637169689739
1   -1.85399015069955  -1.60774631789028  0.00909139997151
1   0.38107502797199  -2.41198194024878  0.03413198167470
1   2.41141229836629  -0.82784239795111  -0.07621076227738
1   1.72197663511207  1.78632789610248  0.00393677070484





