%nproc=
%Mem=
# TD=(NStates=1) B3LYP/6-31G(d,p)  

ABSSPCT

0 1
6   -0.25759734763952  1.35661228635207  -0.00271327186603
6   1.07742783737950  0.90630125164479  -0.02141356877466
6   1.33716646436601  -0.49816888729035  0.02404972432520
6   0.28325879367005  -1.35337904565139  -0.06561193081276
6   -1.06452684856060  -0.89278134948247  0.02177429488231
6   -1.33766295608393  0.48788390332697  0.03195808473705
1   -0.59772535957519  2.46018786435068  -0.18226276603077
1   -2.45091717707467  0.88542257832588  -0.08870708421765
1   -1.94621706086061  -1.68086936818449  0.10694626871730
1   0.44096658322278  -2.50059702024860  -0.00604550557923
1   2.33953178681075  -0.86723309979480  0.20026764437415
1   1.75476034220963  1.65524360352413  0.14841088005515





