%nproc=
%Mem=
# TD=(NStates=1) B3LYP/6-31G(d,p)  

ABSSPCT

0 1
6   -0.29293185838730  1.33823218067460  0.01581081334805
6   1.03288000475077  0.85256688036316  0.01286574252177
6   1.30883707035642  -0.42508862616405  -0.03840033523760
6   0.29194584888617  -1.39083932808366  0.02764971442126
6   -1.02566750600614  -0.87552381678052  -0.00845820971211
6   -1.32559187947085  0.51646859943321  -0.00365862537778
1   -0.37337355325050  2.46483668926056  -0.20075792735953
1   -2.30500918661513  0.86006788691257  0.01627698657740
1   -1.79884090853858  -1.59252425741152  -0.03226919792991
1   0.40687552402953  -2.56070380209061  0.02569850375003
1   2.33152023249388  -0.83722229933133  -0.05934363917412
1   1.86694392136202  1.47961155494244  0.13071843206532





