%nproc=
%Mem=
# TD=(NStates=1) B3LYP/6-31G(d,p)  

ABSSPCT

0 1
6   -0.24059137482905  1.34311130968581  -0.01251973798022
6   1.02429783087917  0.83524318044133  0.04229750479184
6   1.34602159992070  -0.43733762720827  -0.01987816170228
6   0.23044302611993  -1.28470790012414  -0.05335858946503
6   -1.02581786494536  -0.92397729688866  0.06562380140421
6   -1.32245112396842  0.43988463704589  0.00781616759496
1   -0.23869323984260  2.44432529052277  -0.08818699362091
1   -2.52652124859171  0.96497321293221  -0.25279182258557
1   -1.84414896476975  -1.66366633487126  -0.16303419031956
1   0.27747501591639  -2.19386192887526  0.19016447344126
1   2.42067787852370  -0.86021158620351  -0.08107515065898
1   1.80648757644700  1.59452659113017  -0.00509959884345





