%nproc=4
%Mem=
# TD=(NStates=1) B3LYP/6-31G(d,p)  

ABSSPCT

0 1
6   -0.26311961534188  1.34657859223547  -0.02518432941331
6   1.03533725552191  0.93009355837315  0.01396774953971
6   1.34580778277080  -0.49434312043416  -0.01001880066818
6   0.23935837858952  -1.33420779665333  0.01623545069304
6   -1.06733659119166  -0.87577111699341  0.01257569294771
6   -1.30931136220623  0.42060455253617  0.01890775870035
1   -0.41193349946332  2.40562292900433  -0.09003465806928
1   -2.13924838533849  0.77740596937663  -0.03945355091387
1   -1.96738981347420  -1.44245953268221  -0.07122084526132
1   0.46312433327435  -2.43422097420546  -0.24624330300727
1   2.37552976873465  -0.79869335541641  0.03035524533723
1   1.90754581833716  1.59824404166003  0.03004989719023





