%nproc=
%Mem=
# TD=(NStates=1) B3LYP/6-31G(d,p)  

ABSSPCT

0 1
6   -0.23356302854337  1.41587051419585  -0.07826271718688
6   1.04153553879873  0.91736225061795  0.03394772222769
6   1.32608896533971  -0.50418754402874  0.02495040422593
6   0.27959783507848  -1.37345708167279  -0.00335801847472
6   -1.08515839637875  -0.91431747644042  -0.03116641426756
6   -1.30784726035715  0.46926221265528  0.03126947206595
1   -0.57124952803210  2.61350299834426  -0.17857248329056
1   -2.42900085277347  0.59876266154437  0.53597389993363
1   -1.92826830589526  -1.64285547073423  -0.09866487445457
1   0.45785851475905  -2.48090037485777  -0.00941834852203
1   2.23823909098100  -0.90338098212602  -0.08267829227593
1   1.97207333790015  1.69434958312266  0.14153748952260





