%nproc=
%Mem=
# TD=(NStates=1) B3LYP/6-31G(d,p)  

ABSSPCT

0 1
6   -0.29708497697269  1.35858831463045  0.01741266209881
6   1.07082123618343  0.94153946063776  -0.03065828419417
6   1.33246442819781  -0.50482004643754  0.00492018460933
6   0.25613526796237  -1.37325988849957  0.02259887798007
6   -1.10700832660324  -0.87272089780882  -0.00316189597909
6   -1.27034175913391  0.44123250945864  -0.00479695512551
1   -0.35204038897653  2.52449944948232  0.01865701931628
1   -2.39411635433217  0.69891215417666  -0.08578068768792
1   -1.89339799338306  -1.64074731748014  0.00805736914214
1   0.43670268647015  -2.38173343271957  -0.04990117539775
1   2.42688009148228  -0.77863986705125  -0.11850887425893
1   1.95180480290432  1.66873536569474  0.15031003160761





