%nproc=4
%Mem=
# TD=(NStates=1) B3LYP/6-31G(d,p)  

ABSSPCT

0 1
6   -0.22720554044837  1.37435135237932  0.02702746227800
6   1.06701745248306  0.90186907485417  -0.02333137171777
6   1.28743871125981  -0.45835507134224  0.02050726163400
6   0.26072843968400  -1.37297553747659  -0.01702700255158
6   -1.05565651118112  -0.92811654209393  0.00505395458932
6   -1.32521467907712  0.52196577412590  -0.04861419623854
1   -0.43935711625041  2.37968106209627  0.06376541532718
1   -2.44174661424969  0.68877885834659  0.20293532802287
1   -1.85315448801680  -1.83785630160687  0.10809721653042
1   0.36528283724761  -2.59464567721811  0.05204131451249
1   2.40990125832099  -0.67225692040871  0.05265036261362
1   1.84647206276819  1.59462051341501  -0.00072967727012





