%nproc=4
%Mem=
# TD=(NStates=1) B3LYP/6-31G(d,p)  

ABSSPCT

0 1
6   -0.24816293939982  1.40403972575291  0.04892905212016
6   1.03034383885520  0.86409679041748  -0.00173680112318
6   1.34325961669433  -0.49123007333497  0.00931707771600
6   0.24038170493271  -1.35825289514218  0.02764913874514
6   -1.02030223083482  -0.92631629680764  0.00903341677003
6   -1.34424439289346  0.49042153066769  -0.04773935569027
1   -0.47211133628140  2.39522010242125  -0.15036815676397
1   -2.39380284815375  0.90388308414242  -0.02205672245173
1   -2.01024282462268  -1.64375091541180  -0.04671679595397
1   0.68379682143533  -2.24744045946035  -0.06517955706013
1   2.32061847683002  -0.64275260977212  -0.33987196939652
1   1.88655096181869  1.40510213311359  -0.02432214568167





