%nproc=
%Mem=
# TD=(NStates=1) B3LYP/6-31G(d,p)  

ABSSPCT

0 1
6   -0.26756672831775  1.32863580389759  -0.03273517925581
6   1.08940740565424  0.88406196899405  0.03127585811612
6   1.34118887635887  -0.47218525801356  -0.02252709814240
6   0.28394629174471  -1.34664134035081  -0.05687759403485
6   -1.11147072724097  -0.89909316603509  0.03815487345425
6   -1.31535850447197  0.48659944757295  -0.01188562653542
1   -0.59419885822540  2.36148939594546  -0.11297706894318
1   -2.42848059893868  0.86615353287427  0.14767634427347
1   -1.89201990597414  -1.55305882907743  0.13036697323109
1   0.55460741260752  -2.35234148627109  0.15474569024569
1   2.23858961184690  -0.76451043203286  0.10937495858617
1   1.88004764920546  1.65631483153532  0.28342229579952





