%nproc=
%Mem=
# TD=(NStates=1) B3LYP/6-31G(d,p)  

ABSSPCT

0 1
6   -0.29792644718643  1.43939704794193  0.05697820403780
6   1.07560836721818  0.86233557095838  -0.00052022788398
6   1.31170321834968  -0.53355393902487  -0.05862773663828
6   0.31597187001442  -1.32575701129807  0.04110156288197
6   -1.04684932614161  -0.86894401395268  0.00875776909797
6   -1.33443328070057  0.41963356051028  0.00640259393789
1   -0.39855834071768  2.58290252058814  -0.20159299771073
1   -2.42862676215439  0.59361021613636  -0.32154105959654
1   -1.99957143507352  -1.48378668477528  -0.18818403996823
1   0.32760669605955  -2.43142018608083  -0.03847813464469
1   2.27974646786466  -0.92110746334075  0.04500870269960
1   1.91800654969814  1.77923873491469  -0.07722540562628





