%nproc=4
%Mem=
# TD=(NStates=1) B3LYP/6-31G(d,p)  

ABSSPCT

0 1
6   -0.28899088254415  1.32371203272605  0.03224702909246
6   1.10116355819407  0.92731549563179  -0.03185239269044
6   1.28643034186327  -0.44516765767173  -0.01286891624588
6   0.23881788209498  -1.31481325192240  0.02292290641188
6   -1.08511492138987  -0.94871727318902  -0.00735554000963
6   -1.26440198620610  0.44960961596080  -0.00291929223118
1   -0.40868362293127  2.43242952921119  -0.05903495634898
1   -2.36929544820154  0.86825224177662  0.07432744834236
1   -2.07810013644547  -1.58171995056825  -0.21494924269321
1   0.58694789946890  -2.27131151288128  0.11058461686821
1   2.34707257401552  -0.89032032030499  0.02890549258649
1   2.08129529016581  1.52412789348510  0.04931249738557





