%nproc=
%Mem=
# TD=(NStates=1) B3LYP/6-31G(d,p)  

ABSSPCT

0 1
6   -0.25029679951718  1.33998584120452  0.01097023285012
6   1.05135393014778  0.92091368804158  0.00973487695048
6   1.28785957951033  -0.44742885779593  -0.02836597776462
6   0.26285208537951  -1.39141594246932  0.02692162530426
6   -1.05388428707908  -0.92212692433931  -0.02594886896490
6   -1.29163761003758  0.51586520960145  -0.01513969258260
1   -0.31311700826494  2.44044915494443  0.22331778712278
1   -2.46938882908618  0.70998376899774  -0.16111337491773
1   -1.91445180697955  -1.58406394796045  0.24613152044326
1   0.52833867606485  -2.46421803782398  0.05102746269636
1   2.31824815677961  -0.80190445779260  -0.00430403998415
1   1.77820527634192  1.56769259429570  -0.05199361733726





