%nproc=4
%Mem=
# TD=(NStates=1) B3LYP/6-31G(d,p)  

ABSSPCT

0 1
6   -0.23330754036270  1.39961805902383  0.02521116749237
6   1.04251282883557  0.87620784130520  -0.02587993847342
6   1.34771124914151  -0.46938424430988  -0.01040532221475
6   0.22241358451756  -1.33745980410779  0.00804657836214
6   -1.02648254284186  -0.92095201838022  0.00796854088502
6   -1.37477141654848  0.45711670384562  -0.01630507182155
1   -0.26000374997252  2.49136657061804  -0.02492470927919
1   -2.35747767239590  0.79816839183975  -0.02546685045750
1   -1.80485781871773  -1.70691989493477  0.00115059672231
1   0.36670076592859  -2.46552006661606  0.03942720355118
1   2.50092828910477  -0.77532877860469  -0.01815359736621
1   1.82470785344485  1.58415442411055  0.17079348752386





