%nproc=
%Mem=
# TD=(NStates=1) B3LYP/6-31G(d,p)  

ABSSPCT

0 1
6   -0.30867013383185  1.34933891886692  0.01425781215855
6   1.07261774536979  0.91820107080529  -0.00852856095768
6   1.39478023961784  -0.46566434535486  0.01018151887992
6   0.24488124708553  -1.40976550956921  -0.00366267519288
6   -1.05979899958553  -0.87064172460786  -0.00049704538724
6   -1.36361009779659  0.49544720285535  0.00880987398461
1   -0.50031614760697  2.40501510332829  0.00813637964495
1   -2.28443775072715  0.83979195610765  -0.09614513516921
1   -1.78423615773626  -1.65921261061446  -0.03313476773348
1   0.41186286400752  -2.37868127149897  -0.06706622927968
1   2.39051092793827  -0.93707271270812  0.08840549967669
1   1.99208251705873  1.48966586550856  -0.17360637386567





