%nproc=
%Mem=
# TD=(NStates=1) B3LYP/6-31G(d,p)  

ABSSPCT

0 1
6   -0.25892918349858  1.39950429832635  -0.12003371508363
6   1.06514133894469  0.94803646725909  0.00257495863890
6   1.26919997012348  -0.46678367309549  0.03047573549785
6   0.22402966441809  -1.46283569001779  -0.06753892328935
6   -0.99759075092614  -0.88793016271968  -0.01787774151381
6   -1.30680755212545  0.45587381914934  0.10885055024874
1   -0.49622354154914  2.54777666495416  0.11036982049971
1   -2.34671741318700  0.79961631865960  0.27606775719174
1   -1.92093782596284  -1.50679609132891  -0.11122071374809
1   0.63128164914073  -2.43978585605738  0.14242331916697
1   2.27358990234556  -0.83725073629220  0.40940233864287
1   1.93249651919279  1.60341730603269  0.12252556510061





