%nproc=
%Mem=
# TD=(NStates=1) B3LYP/6-31G(d,p)  

ABSSPCT

0 1
6   -0.25022789688055  1.39156888590785  -0.10233022596077
6   1.05569766160086  0.93829809170771  0.07770815269818
6   1.28255358670199  -0.45890609976642  0.00165398386425
6   0.21971504860127  -1.39573672093001  -0.07351276160420
6   -1.02360873485570  -0.93537452579957  0.04392034573623
6   -1.26390720834877  0.50822691436361  0.03243935031811
1   -0.66313090809431  2.36424476257472  -0.27152835365631
1   -2.33364986795993  0.74124588304922  0.12748721497872
1   -1.89929385806785  -1.70049640819412  0.20779759414616
1   0.41740559075023  -2.67325669396900  -0.13013058422236
1   2.31672570784066  -0.96268064896575  -0.00045885836840
1   1.85566110031956  1.73657809923568  0.31717219976629





