%nproc=4
%Mem=
# TD=(NStates=1) B3LYP/6-31G(d,p)  

ABSSPCT

0 1
6   -0.23239311649048  1.45944132182687  0.10553266161569
6   1.07409079476394  0.90670671634152  -0.10059319067786
6   1.27992097297461  -0.48586172105657  0.05276416386318
6   0.28316092373164  -1.39014718549158  -0.02702569974490
6   -1.07473413973144  -0.90346387089332  0.07351172215998
6   -1.29353097457085  0.41273177989457  -0.08575707937592
1   -0.65783039565023  2.50290736003345  0.08533765990513
1   -2.36741114375130  0.69577238033288  -0.07257275342065
1   -2.14091787010909  -1.52662220697906  -0.18630900814328
1   0.53430978229203  -2.48740241537837  -0.05764057398254
1   2.23293508155572  -0.83654360171949  0.02651453717529
1   1.95212350978182  1.70618048986043  -0.06290056289586





