%nproc=
%Mem=
# TD=(NStates=1) B3LYP/6-31G(d,p)  

ABSSPCT

0 1
6   -0.23155060800144  1.35582420313297  0.02385402889913
6   1.05499414599833  0.90931693883186  -0.05553770779700
6   1.37398259965268  -0.44791054528605  0.02968548322899
6   0.23435117270812  -1.29521846991509  -0.01476954914026
6   -1.10470638806772  -0.98551246344921  -0.02608413141547
6   -1.31555748132760  0.46214197099181  0.01297354804652
1   -0.45214969682047  2.38085735810996  0.01527325507217
1   -2.29353125802331  0.90448096035126  0.12760232781256
1   -2.06302584653152  -1.55875904818484  0.00117643129470
1   0.48178500053136  -2.31355090694311  0.07733886157841
1   2.34315143251845  -0.86429823470742  0.20985608145865
1   1.86702346821532  1.48704642115998  0.00190975591265





