%nproc=4
%Mem=
# TD=(NStates=1) B3LYP/6-31G(d,p)  

ABSSPCT

0 1
6   -0.23838124047130  1.39337194432988  -0.03681976295122
6   1.05487025517302  0.93016334771787  0.01464066301408
6   1.29256766734963  -0.47969905594729  -0.00842127704247
6   0.24619021010247  -1.34758541342838  -0.02395590165220
6   -1.03325495318098  -0.93810891217108  0.05312553436290
6   -1.34010326494412  0.45145883730048  -0.00931402956553
1   -0.31058608806428  2.52561809515546  0.15827079330439
1   -2.48151194481770  0.82320267018513  0.03994394868030
1   -1.91966583574468  -1.66931842380360  -0.19615178358823
1   0.55402456480636  -2.35403813895844  0.06734018802457
1   2.39794371412088  -0.96496860659230  0.03487752871163
1   1.98107422313552  1.50732768441785  0.04294012503560





