%nproc=4
%Mem=
# TD=(NStates=1) B3LYP/6-31G(d,p)  

ABSSPCT

0 1
6   -0.20615225551813  1.40414524374429  -0.04989669129624
6   1.03360154986648  0.89901394440988  0.04526096197578
6   1.26402563138079  -0.44771623780314  -0.01096224078633
6   0.26319186524463  -1.36270188112874  -0.03718236176561
6   -1.09210209999460  -0.92455507805717  -0.01262933410548
6   -1.26025101405809  0.43343503204490  0.05405705952985
1   -0.52865532480449  2.44695906518952  -0.21938807102973
1   -2.35946028646599  0.75257800667601  -0.02042926264601
1   -1.89641759513821  -1.52888176898750  0.10663191860809
1   0.52525733321618  -2.58891692445164  0.17722939196746
1   2.28310877438541  -0.60521114342781  -0.06979096490603
1   1.92319235567364  1.49628467030114  0.20794874686461





