%nproc=
%Mem=
# TD=(NStates=1) B3LYP/6-31G(d,p)  

ABSSPCT

0 1
6   -0.28291849735716  1.41943242127178  -0.02494613072640
6   1.03134164468119  0.88423385654074  0.02372443131502
6   1.37166450145318  -0.46356826984388  -0.05478212745817
6   0.29593987134754  -1.41891490557765  0.06545944346234
6   -1.08156536798052  -0.84051694675102  -0.07656344321276
6   -1.31870762771432  0.43720425509621  0.06666646022305
1   -0.41655255986835  2.57492050636026  -0.14128484667533
1   -2.35371069146854  0.66352964131133  0.05192526288061
1   -1.94163132251432  -1.51386874855241  -0.05736475483694
1   0.41747755606345  -2.48494130998704  0.01377390115832
1   2.26330677056341  -0.93153266992147  0.10096136289254
1   1.83277435686427  1.51798228353403  0.03068265714755





