%nproc=
%Mem=
# TD=(NStates=1) B3LYP/6-31G(d,p)  

ABSSPCT

0 1
6   -0.24938430479389  1.39003612713939  0.06470204376225
6   1.04618634606462  0.93414808486588  -0.06914513398079
6   1.29969686752057  -0.49316440268908  0.05965598316524
6   0.21276253035197  -1.41184745039038  -0.01915102883265
6   -1.01547014296406  -0.86741128547084  0.02203438025570
6   -1.31692400401987  0.43742665933306  -0.04420491605523
1   -0.48191377361748  2.41325488375115  0.14042203820044
1   -2.17436559188030  0.91869151189481  -0.10195057594781
1   -1.83830349195252  -1.78717227861096  -0.03539924834931
1   0.51685589401983  -2.42070224262334  0.06970056664402
1   2.29242651406453  -0.72894781599272  -0.16288536316738
1   1.95644812413100  1.68001838742787  -0.05681078435683





