%nproc=4
%Mem=
# TD=(NStates=1) B3LYP/6-31G(d,p)  

ABSSPCT

0 1
6   -0.20326015490624  1.34201038243227  -0.03675094096138
6   1.11798475927487  0.91867462655947  0.07134923337858
6   1.33608266920442  -0.47162051174665  -0.00708281680891
6   0.23997231070830  -1.35132026531949  -0.08061862196049
6   -1.13670709615950  -0.90882220557508  0.09375557327267
6   -1.34212601148610  0.46995643260733  -0.00983841534077
1   -0.54270839781111  2.43234045071934  -0.14121359127549
1   -2.41061548110299  0.66013920910741  -0.42534873981770
1   -1.82366681708230  -1.77803880945623  0.22241309145143
1   0.51638861043383  -2.38323771011947  -0.00202301313366
1   2.33513178861993  -0.70110045140304  -0.29325456120802
1   1.79190769741975  1.78533906449160  0.21931488724841





