%nproc=
%Mem=
# TD=(NStates=1) B3LYP/6-31G(d,p)  

ABSSPCT

0 1
6   -0.28165511148467  1.30629393500446  0.00474988081671
6   1.05023485147862  0.89399749670724  -0.00993864197699
6   1.37285293800264  -0.48120565422059  -0.00134683803113
6   0.26744584364222  -1.34308195376208  0.00304491294361
6   -1.01245274580713  -0.84995120064704  0.03405882857531
6   -1.39375629360880  0.50985237021519  -0.04757351441864
1   -0.34294520919685  2.32443440071845  0.21739995247782
1   -2.51358051992115  0.69910379698709  0.05595028812967
1   -1.85246449614762  -1.56684000186288  -0.03220197605628
1   0.36630599637027  -2.42463454293597  -0.03233300763610
1   2.38184752028785  -1.04193341804405  0.00964715335241
1   1.88745015971531  1.64353941534072  -0.00602995493644





