%nproc=4
%Mem=
# TD=(NStates=1) B3LYP/6-31G(d,p)  

ABSSPCT

0 1
6   -0.27017641032547  1.35819500419205  0.00413729873294
6   1.01098294202312  0.89467520607168  -0.06840578915149
6   1.33513754645918  -0.44446964698294  -0.00007884209096
6   0.27236104058569  -1.40638944288383  0.08128514928111
6   -1.06827995815041  -0.91194724473940  -0.05209398019404
6   -1.26434661217945  0.50616259312379  0.02272586180660
1   -0.48236141515863  2.32322355306230  0.19482721293164
1   -2.18158916828926  1.00600294071221  0.10539584452075
1   -1.96593139050475  -1.62821240792452  -0.20379393666801
1   0.40106775134659  -2.40258751313783  -0.03394183594838
1   2.39783829670323  -0.94448848772712  -0.03212272942432
1   1.67975702486649  1.75545082356942  0.17171887013946





