%nproc=
%Mem=
# TD=(NStates=1) B3LYP/6-31G(d,p)  

ABSSPCT

0 1
6   -0.27398685551680  1.37840553070245  -0.04883876496984
6   1.12022142970173  0.88716584826482  0.02454323088649
6   1.28340301499169  -0.43685996804528  -0.01221863197711
6   0.26061657177154  -1.39027342618473  0.00300854756610
6   -1.04445492538884  -0.93394853036197  0.01432174377781
6   -1.34441099489082  0.46187159566807  -0.00173258223047
1   -0.41942928668104  2.30293948275292  -0.03925453212319
1   -2.17189492228390  0.93130557379282  -0.03399149774713
1   -1.89219171496726  -1.52074105630896  0.28434698409595
1   0.32762113651821  -2.34254266220130  -0.19264538572508
1   2.29134757121424  -0.56484777801092  -0.15589825760159
1   1.88535597577565  1.55464295791128  0.40220910081086





