%nproc=
%Mem=
# TD=(NStates=1) B3LYP/6-31G(d,p)  

ABSSPCT

0 1
6   -0.25590196961556  1.40220504854606  -0.04568772933790
6   1.07005753409437  0.93424565454523  0.06721389985012
6   1.31948074047359  -0.50377010229912  -0.03829285814669
6   0.24166078828939  -1.39602382342257  -0.04692970018580
6   -1.04961112761046  -0.92028794471365  0.08620302294195
6   -1.30169383715887  0.46188905557492  -0.03579554418878
1   -0.45455937507553  2.60022019796995  0.18879713707058
1   -2.44571227377389  0.86628745713271  -0.14184831280940
1   -1.96028201314042  -1.70850015849355  0.04035541471361
1   0.57283789778980  -2.37041025110759  0.02706136175058
1   2.20754305167406  -0.81301106332214  0.04223277917792
1   1.81190857448440  1.67165010452585  -0.00836399857456





