%nproc=4
%Mem=
# TD=(NStates=1) B3LYP/6-31G(d,p)  

ABSSPCT

0 1
6   -0.23977515940729  1.41862603635827  -0.01282396617218
6   1.09986630170808  0.93202614621278  0.06615626236981
6   1.27665975430445  -0.48151073274473  -0.04459836628605
6   0.20644483896482  -1.32649211158280  -0.00608914205845
6   -1.07033853149499  -0.98837515038212  0.02774272353450
6   -1.25723264311211  0.43577217906490  0.00044623083114
1   -0.68177185544984  2.51641029316774  -0.16211823689432
1   -2.23650010891174  0.90083665563242  -0.19891046093235
1   -1.94002139443986  -1.72182962961137  -0.01496511053819
1   0.58508635285901  -2.29796099974511  0.10111881681401
1   2.28132759678831  -0.87035489876978  -0.20797333765105
1   1.83102532634985  1.55915302378150  0.04099747995001





