%nproc=4
%Mem=
# TD=(NStates=1) B3LYP/6-31G(d,p)  

ABSSPCT

0 1
6   -0.24476266040269  1.36106248388743  0.02389449891388
6   1.06757617333496  0.95551324212677  0.02233196978035
6   1.29004227096993  -0.46759332262687  -0.05568863765709
6   0.24049911216648  -1.41142147226390  -0.00163178711944
6   -1.03146569986565  -0.85738734636543  0.00194816862781
6   -1.30016930088518  0.43446271264985  -0.03198324313853
1   -0.48656196233907  2.47052837821612  0.13366646740351
1   -2.50675505127369  0.60877063872688  -0.05486047965409
1   -1.80356400352754  -1.60518755797274  0.12254280205955
1   0.22562404353543  -2.45756801885391  0.23412986686825
1   2.28275660065229  -0.80704598203846  0.17192874248120
1   1.98768234255463  1.59038325556603  -0.07660998163358





