%nproc=4
%Mem=
# TD=(NStates=1) B3LYP/6-31G(d,p)  

ABSSPCT

0 1
6   -0.27985229175350  1.34069082800455  0.02411733274944
6   1.03178947836513  0.84089398317683  0.02616878002308
6   1.39500005695850  -0.49575611079836  -0.04709930920250
6   0.24952677672797  -1.30379294923536  -0.00404369186999
6   -1.01961005808083  -0.84070897203674  0.03123489689366
6   -1.33407243625993  0.41747302859863  -0.04974976732585
1   -0.53868701244791  2.49262976174296  0.18847681303046
1   -2.48530994275250  0.99298763195212  0.01566433713242
1   -1.93129011609622  -1.45391908525676  -0.16395818806487
1   0.20078842438582  -2.44172053101088  0.32986489907379
1   2.52611452814977  -0.78382605968597  0.04376787437120
1   1.73219748887102  1.67632508791776  -0.17338268537333





