%nproc=4
%Mem=
# TD=(NStates=1) B3LYP/6-31G(d,p)  

ABSSPCT

0 1
6   -0.24539584638764  1.36436657006109  -0.01137446056359
6   1.05324180255284  0.92896245377293  -0.00668137786415
6   1.35699987563987  -0.44927881642966  0.04832962092050
6   0.26003787678979  -1.34144063965604  -0.02875663553427
6   -1.11681308294836  -0.92441862206635  0.01043874612327
6   -1.29801209534357  0.44789855218688  0.01065405684983
1   -0.44128698502660  2.32216684428311  -0.03531855840522
1   -2.19161289639638  0.81910516709890  0.06835153997271
1   -2.06064989182490  -1.61708964325230  -0.18542846886557
1   0.36897894009578  -2.52635827406965  0.14760411184245
1   2.30814412913952  -0.81913294864275  -0.24719693378271
1   1.86972666862981  1.56911368629195  -0.00168218999120





