%nproc=4
%Mem=
# TD=(NStates=1) B3LYP/6-31G(d,p)  

ABSSPCT

0 1
6   -0.22948007055518  1.37317380515329  0.01056344402026
6   1.03987396694603  0.94365587214252  0.04679653282536
6   1.32972236171638  -0.49052202251277  -0.05626908784148
6   0.23571489024698  -1.40717410366976  0.02973323866253
6   -1.05466224530893  -0.91732095504035  0.03273174823771
6   -1.31689405964732  0.46002098723546  -0.02687959966564
1   -0.46016210823749  2.47594057297052  -0.08372573827058
1   -2.23838518586893  0.90395001652091  -0.24763279253706
1   -1.88335761706703  -1.50354808172849  0.04103775079495
1   0.55795150917555  -2.42147713901976  -0.16569342335647
1   2.17446025030632  -0.81906407269241  -0.09946307258542
1   1.81737083507349  1.83087423817931  -0.00954663028822





