%nproc=
%Mem=
# TD=(NStates=1) B3LYP/6-31G(d,p)  

ABSSPCT

0 1
6   -0.28960833439563  1.37486980362543  -0.11123423403248
6   1.04347144724982  0.92070022789213  0.04593591044471
6   1.33553653399008  -0.49986436958587  0.08130862371488
6   0.25695843687835  -1.35543569701103  -0.08302151580742
6   -1.07557891294611  -0.89878308756468  0.05548824909184
6   -1.26904646277349  0.49340410334667  0.04392566299690
1   -0.60717670394817  2.31513653230252  -0.06366621289756
1   -2.37875910934227  0.88891233905887  0.19225611799907
1   -1.82839709067922  -1.70676008502771  -0.14937078683776
1   0.62753414125736  -2.45546507053369  -0.23905046123867
1   2.24227305107703  -0.85548978480544  -0.06561986677486
1   1.85835172597952  1.39334162706035  -0.07520362732823





