%nproc=
%Mem=
# TD=(NStates=1) B3LYP/6-31G(d,p)  

ABSSPCT

0 1
6   -0.27457085355914  1.43816869516830  -0.02780740494131
6   1.05496101308555  0.89095631561225  -0.01194976295836
6   1.32025828253628  -0.44245212455002  -0.02945073433765
6   0.27433455816377  -1.36008013638087  -0.00295564879493
6   -1.11544626844919  -0.96516125714804  0.01485339460918
6   -1.26720869177007  0.45992372790004  0.01103754028647
1   -0.44816712955386  2.36890687038266  0.14109375657698
1   -2.23768888331107  0.85612360223381  0.11652307794251
1   -2.02301186963577  -1.61777470073457  -0.16975105508388
1   0.54882420821875  -2.42663474714431  0.17515226990502
1   2.30431268872419  -0.93311317709646  0.17857265373184
1   1.93217349888530  1.53492168859227  0.19266787715412





