%nproc=4
%Mem=
# TD=(NStates=1) B3LYP/6-31G(d,p)  

ABSSPCT

0 1
6   -0.24088254876625  1.37947750038746  -0.03334430643826
6   1.09053694333955  0.89583466718251  -0.01887125008794
6   1.31494355315223  -0.42966222581965  0.01949502095088
6   0.24067297709538  -1.37151061631711  0.01215199932714
6   -1.10851617424059  -0.91282996516944  -0.05946606232758
6   -1.28760057540157  0.42293903019017  0.04135572060836
1   -0.53022440000748  2.49326931999103  0.36436671311813
1   -2.25444836148951  0.83272473644719  0.07233277909283
1   -1.93459524195727  -1.64573697905604  0.01367452008868
1   0.37886396776273  -2.48564481674719  0.19822770486367
1   2.36214411299433  -0.70141047872161  0.08338762404763
1   1.88702106061411  1.67878525231098  -0.11821311501729





