%nproc=4
%Mem=
# TD=(NStates=1) B3LYP/6-31G(d,p)  

ABSSPCT

0 1
6   -0.25447125672871  1.41841072163868  -0.01609830580690
6   1.11163318186860  0.93152970373998  0.02079781617558
6   1.29799094735202  -0.44074643977434  -0.04095597575343
6   0.26280858886547  -1.43942995345332  0.01720700250004
6   -1.02923936126596  -0.96991602595730  0.06129718502039
6   -1.35206935816977  0.50066160515374  -0.08329811641100
1   -0.46575483522932  2.53246522526199  0.26447088316263
1   -2.51577260585616  0.98198098618746  0.13859475580296
1   -2.06609671084108  -1.75302367666535  -0.00625547827785
1   0.47231931968620  -2.42337965125053  -0.01083950384831
1   2.28354439630419  -0.92720868565782  -0.08932380806068
1   1.88353422792855  1.59180053099206  0.19966397297269





