%nproc=
%Mem=
# TD=(NStates=1) B3LYP/6-31G(d,p)  

ABSSPCT

0 1
6   -0.22362381479543  1.34734095288990  0.02059152856772
6   1.07279677744095  0.92527079323465  -0.03199796880770
6   1.29456761935243  -0.42255219625485  0.04631835229833
6   0.27216726930042  -1.39662720337992  -0.02858320590445
6   -1.07903650837620  -0.91396153504849  -0.03199604799073
6   -1.32854466206517  0.46110992351149  0.00007280946958
1   -0.48133241925501  2.54377212759481  -0.08867734255233
1   -2.37400460472632  0.91533823426313  0.19661457673256
1   -1.81160712690922  -1.63736773736915  0.17898456197686
1   0.42325796370012  -2.53649195182107  -0.01361652103702
1   2.26859108153779  -0.99480451177086  0.14651525688499
1   1.88476178583179  1.70142925044965  -0.06073068505723





