%nproc=4
%Mem=
# TD=(NStates=1) B3LYP/6-31G(d,p)  

ABSSPCT

0 1
6   -0.24884892453328  1.35656564699532  0.03113556598363
6   1.06688960663561  0.93751046508189  -0.05857114037965
6   1.27570862077048  -0.44683918608516  0.07225720106033
6   0.24167403492078  -1.38119495261879  -0.05898593232048
6   -1.01575559422039  -0.92367157552906  -0.05397457279609
6   -1.33451419958139  0.47487355469399  0.05697302464254
1   -0.26069578438841  2.42628394097570  -0.11206047580028
1   -2.28193532237687  0.82505035707912  -0.00110955590482
1   -1.84415851466112  -1.60162916409980  0.15130414472822
1   0.47641686427417  -2.54157625137493  0.09615004369434
1   2.19684872724310  -1.07548698284640  0.28999876440571
1   1.86556547899200  1.83316769364515  -0.19655574524728





