%nproc=
%Mem=
# TD=(NStates=1) B3LYP/6-31G(d,p)  

ABSSPCT

0 1
6   -0.27366771848263  1.34845619169172  0.04971833852415
6   1.04359688869554  0.87211292430288  -0.01615761989847
6   1.37312098680297  -0.49072941517297  -0.03327314947324
6   0.27486498629026  -1.34293411950637  0.01946309108085
6   -1.03953636102858  -0.86743363720360  0.01740705651493
6   -1.36247442775973  0.48117516927130  -0.07232356272140
1   -0.53935184544237  2.53353984737007  0.36589990163702
1   -2.51286379282208  0.82066207206642  -0.14754476670592
1   -1.81325609084550  -1.53283238872086  0.17289624361146
1   0.44752711133455  -2.42446694264875  0.07244166515897
1   2.36033463258617  -0.87360840573217  0.08802868495279
1   1.86337857227159  1.44058247688417  -0.09831806208675





