%nproc=
%Mem=
# TD=(NStates=1) B3LYP/6-31G(d,p)  

ABSSPCT

0 1
6   -0.28567908524615  1.39960052802191  -0.03400320274326
6   1.07614901844224  0.91894768440612  0.04130840844429
6   1.26139559414184  -0.47119797222606  -0.00403552146996
6   0.32717230757290  -1.40727073425606  0.00185934367141
6   -1.06721484459412  -0.91832545192323  -0.05031477122408
6   -1.31888997175571  0.47717170248073  0.04015843541304
1   -0.49243224693267  2.48835506141741  -0.03750403763034
1   -2.28364634843538  0.91185531042304  0.05751069078117
1   -1.93148059203117  -1.62706084006537  0.11314116684613
1   0.48324420900235  -2.38450541605340  0.08716213938606
1   2.26814813345060  -0.97771133395482  -0.00610111732110
1   2.06145928043305  1.56708538983350  -0.11975712522617





