%nproc=4
%Mem=
# TD=(NStates=1) B3LYP/6-31G(d,p)  

ABSSPCT

0 1
6   -0.26226358301397  1.36721934727905  -0.03173475035173
6   1.11226029081396  0.89100369209949  0.01444292912438
6   1.37174529509904  -0.43970052141080  0.01771473857723
6   0.24470302185945  -1.30470305656392  -0.01983607898529
6   -1.10937557583714  -0.94449969413451  0.06298081082712
6   -1.34324065618781  0.45099844981165  -0.02500965727693
1   -0.52755756785541  2.36053741421514  0.07344356183602
1   -2.47431670202591  0.80293069771067  -0.16929010411816
1   -1.90184991368239  -1.48776558039847  0.11503682824241
1   0.47603469415917  -2.37544197052065  -0.25454616154669
1   2.38324078976696  -1.06707031399238  -0.20551361953053
1   1.85203968679257  1.57427329882129  0.18021076281200





