%nproc=
%Mem=
# TD=(NStates=1) B3LYP/6-31G(d,p)  

ABSSPCT

0 1
6   -0.26532136278415  1.38921147911835  0.05783785334772
6   1.06387076195334  0.91596277147154  -0.10912092650266
6   1.36120334853906  -0.49430307213284  0.06573709489806
6   0.22181964920027  -1.35022899748661  0.05996079189568
6   -1.01452896762410  -0.91226871486834  -0.07796257155561
6   -1.33130435026765  0.46055405494380  -0.01748312067523
1   -0.61635765145753  2.38719938821600  0.38641928300238
1   -2.32999048017308  0.74228409099218  0.14517055239740
1   -1.96965649975336  -1.54601999368072  -0.01612126665131
1   0.31410945028396  -2.41509157218375  0.05927082631672
1   2.21996968361722  -0.83851456067736  -0.08949929910794
1   1.91994588821468  1.57544815662770  -0.11995594102399





