%nproc=4
%Mem=
# TD=(NStates=1) B3LYP/6-31G(d,p)  

ABSSPCT

0 1
6   -0.21431794385632  1.34989080006536  -0.04027156390124
6   1.08138693349359  0.92633475449826  0.01814285874358
6   1.29236106919091  -0.45388559246643  -0.00018045172094
6   0.24152401017923  -1.38987523710244  -0.04334200019883
6   -1.09083920700218  -0.92112746913169  0.01212617578198
6   -1.31860370865938  0.46394039883188  0.01321142439550
1   -0.38297286042162  2.44337630431784  -0.15567601439602
1   -2.34810944059451  0.81637504158123  0.15422741321464
1   -1.83080614520589  -1.69443638230680  0.16619875035198
1   0.52553991338749  -2.32283428549537  -0.00081841213671
1   2.33096948268139  -0.74346909709282  0.10805739438211
1   1.84582483251600  1.77666304565423  0.26092512793745





