%nproc=
%Mem=
# TD=(NStates=1) B3LYP/6-31G(d,p)  

ABSSPCT

0 1
6   -0.27241983968357  1.40059083792385  0.01542811617881
6   1.05231131978387  0.86606086828761  0.00144342525832
6   1.28857312807792  -0.41087607322020  -0.05064089098014
6   0.26550952553976  -1.42249282563113  0.08015199549751
6   -1.06772533990288  -0.92486717287386  -0.01990781178799
6   -1.28330086142253  0.49045645454829  -0.01355441059507
1   -0.40482551120971  2.47156588119789  0.13550548158017
1   -2.32387220491514  0.72336196821674  0.03074094821689
1   -1.73427998865677  -1.50608130164251  -0.27255666807816
1   0.48596680715646  -2.45837806190814  0.05399440621960
1   2.23231379475051  -0.75967013139725  -0.07353995573024
1   1.94671912775008  1.51769915721422  -0.07333560234068





