%nproc=4
%Mem=
# TD=(NStates=1) B3LYP/6-31G(d,p)  

ABSSPCT

0 1
6   -0.23552491150591  1.37867896591055  0.00023145801484
6   1.02012112185036  0.93314981200846  0.01386534078607
6   1.31987099538101  -0.48196364466047  -0.00586824849124
6   0.30197689790415  -1.42499368649075  -0.00564931109806
6   -1.04488867287874  -0.87481052246331  -0.00595294802140
6   -1.34943767394408  0.47928051613763  -0.01014864179993
1   -0.53798785462004  2.53090779497130  0.06099016331416
1   -2.28690443894988  0.76972527921060  -0.07137428043538
1   -1.95446435634532  -1.55753762848850  0.22208113233374
1   0.29442094642886  -2.57302767434416  -0.03286276059347
1   2.44816016110689  -0.82796930339445  0.03597852565089
1   1.91410523171629  1.55413552254669  -0.03629093726724





