%nproc=4
%Mem=
# TD=(NStates=1) B3LYP/6-31G(d,p)  

ABSSPCT

0 1
6   -0.27319557865719  1.38513585144322  -0.03639475183194
6   1.10147076509142  0.94355814307490  0.05236138752400
6   1.31685373131827  -0.49034894757976  0.00330690509242
6   0.27940788694049  -1.33447338573741  -0.00303618110058
6   -1.06173416759423  -0.90021810296940  0.03590205544821
6   -1.33503681559788  0.40439835299326  -0.01565133108661
1   -0.50854866906329  2.49262035647888  0.00590695966395
1   -2.30750864742383  0.92720929187592  0.07765811938142
1   -1.94779546008706  -1.67383458448077  -0.13798107618782
1   0.24697727863456  -2.33910701927906  -0.18378326162243
1   2.31890201280718  -1.05443206182989  -0.07664173075008
1   1.87141077620326  1.53232248130874  -0.21317311053971





