%nproc=
%Mem=
# TD=(NStates=1) B3LYP/6-31G(d,p)  

ABSSPCT

0 1
6   -0.26539590899190  1.35470076623528  -0.02602818932306
6   1.08730691928320  0.91297775385953  0.04796264248223
6   1.33130109901062  -0.46308660226596  -0.03446284037505
6   0.25724484635456  -1.36884933688706  0.02576704493305
6   -1.06960925818247  -0.88668780062255  -0.07057411481882
6   -1.34037248103092  0.45709782957292  0.05619841089455
1   -0.51502869726616  2.51047085973521  -0.23747260021305
1   -2.40559391844173  0.74979613035464  -0.01256731789751
1   -1.89823012397219  -1.57336303917170  0.15563032245919
1   0.54550029960348  -2.36768331087133  0.15203902256299
1   2.30074137101900  -1.05297340882495  -0.14012327008253
1   1.96676735580363  1.67256627678655  0.11360427362107





