%nproc=4
%Mem=
# TD=(NStates=1) B3LYP/6-31G(d,p)  

ABSSPCT

0 1
6   -0.25781839944625  1.32253782487468  -0.03549132377457
6   1.12401066881354  0.94494215637054  0.04273318179099
6   1.31054929612561  -0.49766344574220  -0.01061162781621
6   0.22229113065158  -1.30289972692381  -0.03808830616503
6   -1.09927323108164  -0.93553170984277  0.03670379486608
6   -1.29692032869587  0.44370392994464  -0.01104629430094
1   -0.44158108528995  2.47298572467667  -0.07509339556120
1   -2.35787367999079  0.89141907302479  0.03800043538834
1   -1.69563540906228  -1.79405491731593  0.14074628867138
1   0.30484264811545  -2.24569146978855  -0.05937241356465
1   2.44207338739916  -0.86792944791883  0.03743426162068
1   1.74476718227959  1.78318972023350  0.10104320530343





