%nproc=
%Mem=
# TD=(NStates=1) B3LYP/6-31G(d,p)  

ABSSPCT

0 1
6   -0.33807270313341  1.37067786598759  0.02063573890965
6   1.06964100519935  0.91275578879875  -0.01791945704898
6   1.28725978497533  -0.50359898687297  0.04442446089509
6   0.26186862516705  -1.39994033157811  0.02684339635875
6   -0.99465080580705  -0.87093841686871  -0.10519885766691
6   -1.26809422711827  0.47570434332764  0.01499931636721
1   -0.53818972852660  2.48375942651209  -0.10273668506580
1   -2.44144355397456  0.86459591185414  0.32216810998638
1   -1.92579733807681  -1.52056064491464  0.15224867994766
1   0.35844799104397  -2.46502689540753  0.15560757508768
1   2.36142682432431  -0.85171827912232  -0.15952100921829
1   1.95437950330121  1.66066819240477  -0.10339869824235





