%nproc=
%Mem=
# TD=(NStates=1) B3LYP/6-31G(d,p)  

ABSSPCT

0 1
6   -0.27220564220768  1.39458277898785  0.01094148984555
6   1.05548864511264  0.84866957364959  -0.06725588434874
6   1.38962149598113  -0.50799641785445  0.07236157262197
6   0.26560347516685  -1.35383705146772  -0.03136065899026
6   -1.07379825711741  -0.85669020848222  -0.03878436521634
6   -1.32881995400917  0.46810474397673  0.04729695729559
1   -0.71799770143088  2.46697667988455  0.08758244499960
1   -2.38471969302184  0.82968157243497  -0.00409569601420
1   -1.90456968427873  -1.69370962092862  0.01735953686383
1   0.50029168981024  -2.42247557756041  0.04250883797671
1   2.26166358699595  -0.70387073111462  0.15529388184559
1   1.80514644518061  1.58485110956268  -0.11827119179834





