%nproc=
%Mem=
# TD=(NStates=1) B3LYP/6-31G(d,p)  

ABSSPCT

0 1
6   -0.28409345142447  1.42917977924944  0.01297876536312
6   1.09175760657947  0.84397825854555  0.03180969382625
6   1.38783740888792  -0.46918347862489  0.00531123439259
6   0.29419343742546  -1.38422900778940  -0.01262579068531
6   -1.06932188593207  -0.86625931226792  -0.00748776491185
6   -1.40063752284090  0.45200568197687  0.00923963184426
1   -0.49916274445870  2.27109074473492  -0.18057147079299
1   -2.53297170910644  0.84684985056323  -0.15919044804644
1   -1.81351451097824  -1.48474854167988  0.09642907882455
1   0.28897446065904  -2.45291681275990  -0.00711008583856
1   2.45031249138335  -0.83480987030628  -0.13192337167329
1   1.83024441644999  1.60644361852102  -0.14873583686346





