%nproc=4
%Mem=
# TD=(NStates=1) B3LYP/6-31G(d,p)  

ABSSPCT

0 1
6   -0.31310152262442  1.41457705614077  0.00471652795885
6   1.10546668035557  0.88679246336958  0.03397246669385
6   1.32497190679224  -0.48346414594013  0.01854685332415
6   0.26792019705097  -1.37921090775913  -0.00876043526129
6   -1.05758715460653  -0.90702319868857  0.01225872718926
6   -1.30316163321262  0.47261427380327  -0.02146904302557
1   -0.53353738454232  2.49329508493986  -0.20857303109844
1   -2.37768692208266  0.68166061203029  -0.08734504335519
1   -1.98711149362418  -1.59803304597898  0.26711629471207
1   0.40056508471230  -2.45814160304886  -0.33819530951715
1   2.21414088772311  -0.80822086238877  -0.12704585556489
1   1.96576021448142  1.65075040400102  -0.08425011576801





