%nproc=4
%Mem=
# TD=(NStates=1) B3LYP/6-31G(d,p)  

ABSSPCT

0 1
6   -0.26698635037143  1.34862403894336  -0.01324689845140
6   1.07611424918234  0.90395793540795  0.04314213765097
6   1.34246473704200  -0.44514787407456  -0.06431733033355
6   0.23187442610587  -1.34099898447139  0.00472404544563
6   -1.08565705817016  -0.92217149122102  0.04618073379108
6   -1.32117855665876  0.47808567673716  -0.02529750019706
1   -0.31592761370112  2.38669177188401  -0.10815550817392
1   -2.23806339670735  0.74119202356983  -0.03124079745514
1   -1.92402478645330  -1.67034323411721  -0.01348538309357
1   0.51186809827698  -2.50510311720005  -0.02195507018737
1   2.31112354279773  -0.78585746272059  0.01767030681875
1   1.91109959805803  1.60209818049434  0.20445968943596





