%nproc=4
%Mem=
# TD=(NStates=1) B3LYP/6-31G(d,p)  

ABSSPCT

0 1
6   -0.26583832741700  1.37416354846603  -0.01382776139187
6   1.11956450737248  0.89786595780126  0.00675119529341
6   1.34139194570071  -0.46389832228811  -0.00279775392188
6   0.23507789579851  -1.33350960700072  -0.00348383256855
6   -1.04068958298584  -0.92487991999110  0.01136101494619
6   -1.35386772964651  0.43713763764237  0.01719444517278
1   -0.51123123904367  2.44800858202081  -0.00855281888797
1   -2.36171343654694  0.91806728588847  -0.03671382876492
1   -1.98146896698136  -1.64521969453822  -0.08851643683923
1   0.32492323292578  -2.41570227742344  -0.11110746435755
1   2.20044301201536  -0.80113727356384  0.12714310580136
1   1.89589107622639  1.63822896832458  -0.09664369922897





