%nproc=
%Mem=
# TD=(NStates=1) B3LYP/6-31G(d,p)  

ABSSPCT

0 1
6   -0.27356769340164  1.37682786855612  0.01258164314201
6   1.08240299205337  0.90730881071195  -0.02777410605411
6   1.39015373564903  -0.43737243916096  -0.00576345828749
6   0.19940312775608  -1.35925829130807  0.04508282474997
6   -1.09654584217306  -0.95983348226212  -0.03337210832394
6   -1.30151651960888  0.45169739961271  0.01588567354489
1   -0.38886791980487  2.62100811136099  0.07434898068657
1   -2.16770525257865  0.92706411211278  -0.00140088000731
1   -1.92995319990896  -1.67163460482933  -0.07775738458585
1   0.38961524162516  -2.54957932154084  -0.10337619253134
1   2.28492331678186  -0.91213397661416  0.10220436042091
1   1.82539417753699  1.84995312033944  -0.08212478428017





