%nproc=
%Mem=
# TD=(NStates=1) B3LYP/6-31G(d,p)  

ABSSPCT

0 1
6   -0.28374605203986  1.40417686524877  0.03727240793035
6   1.06176221741495  0.90549698787981  0.00431806022987
6   1.31514771752354  -0.50982692281661  0.00018123596306
6   0.25677403395502  -1.36443919058776  -0.02045722659632
6   -1.04039620054258  -0.91162522206709  0.04185341127903
6   -1.29988202073035  0.45784155371890  -0.08007190919841
1   -0.47367135779508  2.45845998033310  0.06472535155367
1   -2.33893193579823  0.89764096399998  0.07020094024154
1   -1.83449086445199  -1.61252674142525  0.07105963263113
1   0.53044569801650  -2.30655107833148  0.11968265498265
1   2.16411778135847  -0.81570786590663  -0.12960383022645
1   1.83389079374974  1.56083336982015  -0.00033327176221





