%nproc=
%Mem=
# TD=(NStates=1) B3LYP/6-31G(d,p)  

ABSSPCT

0 1
6   -0.22321398242464  1.38497118127833  -0.01177406873079
6   1.09292814828805  0.91849837125773  0.02644611763661
6   1.30642262823605  -0.45320269385107  -0.02336167235061
6   0.26029803758886  -1.29574824430444  -0.03632721620038
6   -1.11031187140648  -0.93197659817160  0.06655406443656
6   -1.29822394187126  0.43433084311471  -0.04173471412303
1   -0.59786650403595  2.31629285933697  0.00472382379925
1   -2.37574848665863  0.78553117694571  0.16191170213225
1   -1.89274218548955  -1.77318141880478  -0.12606382188298
1   0.50122581629714  -2.44500243657530  -0.00212540527215
1   2.11988568994199  -1.07139047984002  0.20732095620962
1   1.83926642949225  1.55827174953748  -0.03421538155352





