%nproc=4
%Mem=
# TD=(NStates=1) B3LYP/6-31G(d,p)  

ABSSPCT

0 1
6   -0.24997899523953  1.40440038558837  -0.02675894798107
6   1.07007859776808  0.91844562258047  -0.00640374585510
6   1.35274237276563  -0.46135705979095  0.02342484683110
6   0.27850295991102  -1.38810917021418  0.00066441401946
6   -1.11237986439597  -0.89361383006319  -0.03040707879884
6   -1.34659273450259  0.42469779227830  0.03288549085557
1   -0.42107663185346  2.47303661944949  -0.19556660495125
1   -2.45803761199199  0.74796593643404  0.39616029860453
1   -1.85680645743691  -1.57721328862610  -0.18344632065364
1   0.24914595835536  -2.49706113585434  -0.05409343824623
1   2.51911985936062  -0.81160649556366  0.13686147942862
1   2.04184578749297  1.57668238252627  -0.01789302751949





