%nproc=4
%Mem=
# TD=(NStates=1) B3LYP/6-31G(d,p)  

ABSSPCT

0 1
6   -0.29407875390669  1.32108456934379  -0.03655312649813
6   1.07474356632266  0.87442598865982  0.08539030586728
6   1.31024569678660  -0.44345404646991  -0.02085551190425
6   0.31142375354847  -1.39742046580601  -0.04699533471285
6   -1.10480729780015  -0.83639799188519  0.06789102842725
6   -1.27145742432858  0.48823756083941  -0.00481393396696
1   -0.47680487685008  2.27483263900993  -0.18043014617922
1   -2.47152939759563  0.57194726561824  -0.23916173893824
1   -1.99110526337332  -1.34164767410081  0.09580703495531
1   0.41373229508769  -2.40052238907490  -0.17120270524739
1   2.44260464221125  -0.77331966749423  -0.07196267800088
1   1.77031678144305  1.69640813881694  -0.07688741097829





