%nproc=4
%Mem=
# TD=(NStates=1) B3LYP/6-31G(d,p)  

ABSSPCT

0 1
6   -0.23844145366646  1.31663649930737  0.00382725195318
6   1.02942550310777  0.90704723411521  -0.03314048352340
6   1.38303163240484  -0.48455425013036  -0.00836806883656
6   0.27872282684704  -1.32462491668925  0.05417295219244
6   -1.05714380266505  -0.91126847499633  -0.02203102308742
6   -1.36183769241919  0.50475895313650  0.01066744651239
1   -0.37137352508992  2.39210487535090  0.17428549383240
1   -2.36705226150445  0.85175903177955  -0.05076894115639
1   -2.05304456616605  -1.48260172632527  -0.10630130091169
1   0.40956604436068  -2.55586465308235  -0.10265991764758
1   2.31559810946301  -0.88477680752420  0.01423785354696
1   1.66174504559284  1.69930157510697  0.01355896829172





