%nproc=
%Mem=
# TD=(NStates=1) B3LYP/6-31G(d,p)  

ABSSPCT

0 1
6   -0.27152399849727  1.36232278024548  0.02984578154337
6   1.10338635084740  0.95209540075772  -0.00650248179842
6   1.37197844622916  -0.50425416544057  -0.04718544402923
6   0.23559631345313  -1.39242799355609  0.05666404421399
6   -1.08728633185978  -0.87843386225644  -0.05800966991876
6   -1.35174825020915  0.46563540413547  0.01831942951026
1   -0.38922665092621  2.41927883047526  -0.00009211537284
1   -2.44104111936177  0.85327356076473  0.14429919927679
1   -1.93088688018134  -1.66683379752701  -0.21247334448616
1   0.63363010162857  -2.52398158609932  0.11099175992153
1   2.32410697920358  -0.85232510044514  0.28902649065129
1   1.76420680423375  1.77269493679507  -0.26401700862754





