%nproc=4
%Mem=
# TD=(NStates=1) B3LYP/6-31G(d,p)  

ABSSPCT

0 1
6   -0.26257094354054  1.39971827698104  -0.02711334024115
6   1.10262973277573  0.86889973624488  0.00568366738638
6   1.34563374906354  -0.47035007345186  0.01832467629749
6   0.24805784685186  -1.32648918597404  -0.00143677312836
6   -1.12396292172347  -0.90107921116476  -0.01790654880492
6   -1.32012687949702  0.41898332569682  0.05274062643464
1   -0.33122204516215  2.57069575681895  -0.21515237469154
1   -2.56386157068654  0.80558434475542  0.05320186470670
1   -1.93202119962709  -1.76249910741743  -0.14469614140852
1   0.61789930858374  -2.44379311203882  -0.06341334707365
1   2.38127012632766  -0.65139658318646  -0.04165495182145
1   1.93874667715478  1.56300796342688  0.01930692030045





