%nproc=4
%Mem=
# TD=(NStates=1) B3LYP/6-31G(d,p)  

ABSSPCT

0 1
6   -0.23845543783296  1.39214760071644  0.09311473259469
6   1.06646325202541  0.94415566056296  -0.02345850455790
6   1.30437219022310  -0.47457741348295  0.01055772062160
6   0.24606388100998  -1.41119298941433  0.04548998814108
6   -1.05441135472093  -0.91139074177213  -0.04463746210409
6   -1.33180638764258  0.46592926412207  -0.07745466387547
1   -0.49042813418273  2.47848321677962  -0.01149165315360
1   -2.39125738496287  0.78297340432237  0.14173265836931
1   -1.98311729888191  -1.55737747605445  0.16763191348912
1   0.62155723432467  -2.43328564149111  -0.00778624622499
1   2.46016135070804  -0.82641719634432  -0.11785013520803
1   1.89408480086630  1.51362346479196  -0.26362580369386





