%nproc=
%Mem=
# TD=(NStates=1) B3LYP/6-31G(d,p)  

ABSSPCT

0 1
6   -0.22361355360357  1.37100897003102  -0.00669828158715
6   1.05470327460383  0.92965167003933  -0.03490202494723
6   1.29556642021379  -0.44536772490666  -0.02326279999096
6   0.27997108448888  -1.41690996260438  0.05966268996302
6   -1.07896476196429  -0.90836163036312  -0.06215582610904
6   -1.33360717113365  0.46954808472003  0.03718649575442
1   -0.44608076641266  2.38914797354444  0.04822008850955
1   -2.38608843291410  0.86834132766893  0.16303119094797
1   -1.71032637983160  -1.67071957690964  -0.13203629501552
1   0.29731872265039  -2.52883883139185  0.11341149599183
1   2.27083373382297  -0.65083458588400  0.05457197123781
1   2.02098125333870  1.51862375957551  0.18393786645295





