%nproc=4
%Mem=
# TD=(NStates=1) B3LYP/6-31G(d,p)  

ABSSPCT

0 1
6   -0.24351002135135  1.33520835974188  0.03409000519643
6   1.04959508825610  0.89542417350577  0.01552737026682
6   1.25457189257167  -0.42584238646314  -0.08828833663834
6   0.24867191288092  -1.32513078180301  0.03649398706710
6   -1.03847947219576  -0.93135316283105  0.03201732072661
6   -1.28250680226591  0.46369477907571  -0.05744942195514
1   -0.55771935109134  2.38164161911850  0.27384788385361
1   -2.29516380126490  0.96612644085813  -0.38634346018261
1   -1.84727947699021  -1.66324100942321  0.18231918885690
1   0.53322151373123  -2.40452774620193  0.17637220071567
1   2.25979169801769  -0.94073851681187  -0.10522392745699
1   2.03572121167744  1.47529904349421  0.20215114534767





