%nproc=4
%Mem=
# TD=(NStates=1) B3LYP/6-31G(d,p)  

ABSSPCT

0 1
6   -0.23917671738580  1.41638498542914  -0.01117245035981
6   1.02424667046590  0.91400292749959  0.03562597297174
6   1.36849330907261  -0.51361270176200  -0.00550141479680
6   0.23751918725740  -1.33145107474071  -0.02966025101042
6   -1.05492778735490  -0.95817258280168  -0.00015206069337
6   -1.35405255266910  0.47263825973037  0.00098124934724
1   -0.11204046475644  2.43032036114443  -0.16893906665188
1   -2.36237867936939  0.69395023645873  -0.01161245836456
1   -1.76888417138834  -1.65000059911575  0.28442189820850
1   0.33703048304130  -2.30997443345362  -0.09127748515780
1   2.32482430105043  -0.90626717942330  0.08037220056541
1   1.78870793166705  1.76332711422856  0.01202774294555





