%nproc=4
%Mem=
# TD=(NStates=1) B3LYP/6-31G(d,p)  

ABSSPCT

0 1
6   -0.25248162042030  1.35117823204199  0.02166641307792
6   1.10669949850167  0.91638940909644  0.00559518075370
6   1.31843436690848  -0.47263484113811  -0.01311067824145
6   0.24987836039591  -1.33337926971669  0.01375850947773
6   -1.10870072901565  -0.90111747421437  -0.05291177806398
6   -1.30146313136694  0.44027275275501  0.00435551041145
1   -0.57232992666059  2.46526821807039  0.00046655182016
1   -2.50264700972948  0.64394693624751  0.20488999160390
1   -1.89519948768470  -1.54614358662509  -0.05120310134436
1   0.51689086895789  -2.33827271620254  0.22837871870828
1   2.32953805246893  -0.85004277447499  0.15069889426198
1   1.96195955933201  1.61051103486913  -0.25107834196723





