%nproc=
%Mem=
# TD=(NStates=1) B3LYP/6-31G(d,p)  

ABSSPCT

0 1
6   -0.24642742116568  1.36993649920317  0.02106748737487
6   1.00638965541536  0.91721599626618  0.04110035736127
6   1.27998191087999  -0.47447012375804  -0.01649685698752
6   0.29083757583206  -1.40108088512657  -0.03443522729942
6   -1.03372818381200  -0.90375012146150  0.05405702515851
6   -1.30292336187870  0.47088310953484  -0.03252140664182
1   -0.62346728125159  2.46951829467390  -0.08064132174276
1   -2.19390263501301  1.11752238032709  -0.22570131916765
1   -1.82545170331174  -1.58406831903138  0.05191435604424
1   0.52863684804705  -2.45654635657664  -0.04371146485887
1   2.22510690279290  -0.95303152730294  0.00046552398087
1   1.97777505387035  1.60331609106407  -0.18806082634240





