%nproc=4
%Mem=
# TD=(NStates=1) B3LYP/6-31G(d,p)  

ABSSPCT

0 1
6   -0.29638021279028  1.36169921544467  -0.00117875616862
6   1.07781613006568  0.97170755669779  0.00841594328202
6   1.34773100707034  -0.50898101184290  0.01106815589974
6   0.24541064556545  -1.40103089277455  -0.01114621223212
6   -1.08100967941976  -0.90302390166815  -0.01239676937179
6   -1.28835157681866  0.47958480050328  0.00544948927955
1   -0.33177093639764  2.42874589032382  0.08747101217576
1   -2.33088862520193  0.61367437380885  -0.03759756632408
1   -1.83217732133495  -1.52164502706159  0.05857527331383
1   0.32056314737850  -2.35032884624432  0.05666328716592
1   2.32219727692233  -0.79756692067998  0.02527699435321
1   1.78189045025571  1.65406753635874  -0.16957914495292





