%nproc=4
%Mem=
# TD=(NStates=1) B3LYP/6-31G(d,p)  

ABSSPCT

0 1
6   -0.26078395921554  1.38806953673454  0.03397723194159
6   1.03076646905732  0.91553695992218  0.00277220004176
6   1.26269644914635  -0.47144119246189  -0.07262224722678
6   0.21363639264690  -1.36344839238910  0.09050267297817
6   -1.01448449994799  -0.91559938175751  -0.01829328536278
6   -1.26044736023886  0.45903486535911  -0.05113598370829
1   -0.50167223654941  2.47393681945072  0.14257102991545
1   -2.31712016673328  0.70383788732339  0.09057002199668
1   -1.74883309200278  -1.54008458566725  -0.19901021862039
1   0.59202958928210  -2.35548158595548  0.23982297002307
1   2.36121461852134  -0.91979292270267  -0.23992343289752
1   1.94531751501607  1.46728325945414  0.12929099167610





