%nproc=4
%Mem=
# TD=(NStates=1) B3LYP/6-31G(d,p)  

ABSSPCT

0 1
6   -0.29960469485599  1.38041560667330  0.06132356458971
6   1.03923621201689  0.90457642722890  -0.06828284659935
6   1.31633053737647  -0.49177671646845  0.03006373224738
6   0.25987232197565  -1.35200574714326  0.00630943248532
6   -1.06339933359441  -0.92209305918357  0.01522926784637
6   -1.25865563966058  0.43944373475972  -0.05131968667199
1   -0.52334371872723  2.54105167223150  0.18604881450837
1   -2.25607691165476  0.95962910789563  0.05502529998276
1   -1.89711947435490  -1.45958072313945  -0.20634126120339
1   0.43634157836715  -2.39801181586943  0.22796334528007
1   2.31357173624515  -0.80012265134862  -0.16263304940795
1   2.01565118234939  1.58512611495356  0.02103934468855





