%nproc=
%Mem=
# TD=(NStates=1) B3LYP/6-31G(d,p)  

ABSSPCT

0 1
6   -0.24638046272239  1.41028499348799  -0.01902412251776
6   1.05332537604118  0.92403781721714  0.04068956268974
6   1.25883383691174  -0.44130267116864  -0.04143008869096
6   0.23421663118246  -1.41796109353516  0.04163501136595
6   -1.04604886647120  -0.94000522626748  -0.02530993789791
6   -1.26510647824584  0.47367553266408  0.03278229902222
1   -0.43878554555866  2.46099411264817  -0.01828309461163
1   -2.27222169877147  0.79531006041602  -0.08160093541687
1   -1.76941865970788  -1.71219107069931  -0.09203015671803
1   0.40826305339544  -2.56329689555736  -0.10762198486327
1   2.23661501962087  -0.64116852409017  0.09696621410872
1   1.94501017211115  1.51007741664319  -0.21718494513445





