%nproc=
%Mem=
# TD=(NStates=1) B3LYP/6-31G(d,p)  

ABSSPCT

0 1
6   -0.30797703681820  1.36713691363682  -0.01506003196723
6   1.08315454734490  0.87632489561533  0.01003346780688
6   1.39036638008545  -0.48803251193207  -0.00695908295646
6   0.23383012686893  -1.38538104666530  -0.03859350315067
6   -1.04731118645509  -0.85511117574860  0.04699174744391
6   -1.32630469298723  0.48141538074738  0.00336992938764
1   -0.50189329492748  2.46074086380694  -0.01231191724984
1   -2.44008714289407  0.54977109684069  -0.12866878315465
1   -1.74560192881078  -1.44419766078519  -0.00186638485422
1   0.29691250393155  -2.39675518401922  -0.03386668467479
1   2.31091763931430  -0.82752775294910  0.11265603470463
1   1.74904230195298  1.73446328448829  0.05824800675806





