%nproc=
%Mem=
# TD=(NStates=1) B3LYP/6-31G(d,p)  

ABSSPCT

0 1
6   -0.24941848312393  1.37775574212549  0.01207257878947
6   1.03551470458729  0.88734026471338  0.05848743873080
6   1.30100924915578  -0.45822295041625  -0.03733043492898
6   0.28629690102831  -1.40460346128736  -0.05955045911576
6   -1.02947577559602  -0.85530162208811  -0.01308874206584
6   -1.30714700779068  0.46499213771327  -0.01093586767540
1   -0.51674458871977  2.41434894436096  -0.16855043846512
1   -2.36621630431869  0.78151756920712  0.22714965567388
1   -1.91224126654035  -1.65046013849082  0.08797185884326
1   0.25499115763915  -2.40529853009003  0.46624732437685
1   2.39027728783580  -0.77644434579918  0.25001762334712
1   1.73031286116211  1.50549178328559  -0.20493001380243





