%nproc=4
%Mem=
# TD=(NStates=1) B3LYP/6-31G(d,p)  

ABSSPCT

0 1
6   -0.30858746298745  1.30496396463374  -0.01694558638430
6   1.00737972925778  0.89485659101887  0.03554663893471
6   1.28418279132900  -0.46753194764433  0.00820129880249
6   0.29608286504017  -1.38419999472553  0.00286977850284
6   -0.99567341538746  -0.88276936690484  -0.00612021882066
6   -1.30795608661562  0.53111856811368  0.01834695409040
1   -0.27662230899189  2.36122163179110  -0.13041281980427
1   -2.25757417180649  0.93049695201501  -0.09636764778757
1   -1.78732073445150  -1.39554651396013  0.03406520521192
1   0.36978850981539  -2.59354160226835  -0.11160944894722
1   2.41365547846319  -0.83821255391838  -0.17579795859209
1   1.83008606818615  1.61421847109746  -0.08566095596547





