%nproc=
%Mem=
# TD=(NStates=1) B3LYP/6-31G(d,p)  

ABSSPCT

0 1
6   -0.25579968829580  1.35177839097434  -0.05190497899472
6   1.06039914851462  0.96863990694389  0.03946934015282
6   1.31498017322401  -0.43170470293911  0.02187434970393
6   0.23496349486990  -1.39713488734755  -0.04978091926457
6   -1.08909543602792  -0.89328121474190  -0.02749742134879
6   -1.24718923535101  0.41788650543837  0.07962775592673
1   -0.45587870607607  2.43006410750802  -0.22067253824060
1   -2.27088196177113  0.85251468712743  -0.12707193074826
1   -1.99917700694733  -1.59535673774608  0.19624075051070
1   0.40486823991282  -2.54388100931586  0.02559439204872
1   2.17028585445631  -0.86421447270687  -0.00202670518407
1   1.89410797142743  1.56072419936165  0.02104679133366





