%nproc=4
%Mem=
# TD=(NStates=1) B3LYP/6-31G(d,p)  

ABSSPCT

0 1
6   -0.25640317711602  1.37862366825516  0.04653274846199
6   1.04518645783695  0.91505969864754  -0.03630102704959
6   1.28346215037331  -0.46057731089008  0.02745577603434
6   0.27690937929439  -1.35866896779210  -0.03854224917377
6   -1.06397825987168  -0.94089966281820  -0.00822390260235
6   -1.28393539442920  0.47841535231248  0.01483680260492
1   -0.56638838836525  2.43181694692655  -0.19822829843210
1   -2.24655155407614  0.94149134628770  0.00522337974214
1   -1.71323071153845  -1.62492964907619  -0.03191983353612
1   0.42655611215952  -2.42046767238768  0.07473456357151
1   2.24571686275036  -0.94662721351943  0.21264028659725
1   1.83480055995991  1.43730591346293  -0.13232958238896





