%nproc=
%Mem=
# TD=(NStates=1) B3LYP/6-31G(d,p)  

ABSSPCT

0 1
6   -0.24668334939571  1.35511763889477  0.04171651814272
6   1.07377487262477  0.92061738158681  -0.04275515779745
6   1.38094494488778  -0.44952565687736  0.07775791492762
6   0.31182096515555  -1.41645251359361  -0.09073487038838
6   -1.11612165121090  -0.87709482741295  0.03831566929984
6   -1.41377728968251  0.48736212346029  -0.00752409802925
1   -0.24512625839970  2.36794308955416  -0.06761667018226
1   -2.32239683002914  0.77763067687725  -0.18471642030134
1   -2.05378858654236  -1.60243867924956  0.11996348117747
1   0.45392670388239  -2.47584326677023  0.03816532788203
1   2.46780483245945  -0.84643795628827  0.02391978292209
1   1.84359029895246  1.61653828119211  -0.10859542287869





