%nproc=4
%Mem=
# TD=(NStates=1) B3LYP/6-31G(d,p)  

ABSSPCT

0 1
6   -0.19824823376845  1.33965194237718  0.05175117137222
6   1.06012922937868  0.96403421294494  -0.00252174396527
6   1.28016584922130  -0.43387090542794  0.00552523158547
6   0.24172421940489  -1.38596043118943  -0.01794881590838
6   -1.07867061888559  -0.95114582065268  0.07197731201712
6   -1.27781686804134  0.45030243060962  -0.06379268594921
1   -0.36291755695106  2.40316168478512  0.07731595587558
1   -2.30273922251524  0.81929996565924  -0.12741891280004
1   -2.25609412089700  -1.53631412185404  -0.25534481946552
1   0.47960631853609  -2.40199178685619  0.01471001286837
1   2.33597135509476  -0.69833751369395  -0.06288277814757
1   1.83047262358471  1.69377549187524  -0.28731214458464





