%nproc=
%Mem=
# TD=(NStates=1) B3LYP/6-31G(d,p)  

ABSSPCT

0 1
6   -0.25950773999062  1.45759249382391  0.02771926522515
6   0.98947177155390  0.87246288165813  -0.03322464174855
6   1.29707776922508  -0.50396764647651  -0.04515025496019
6   0.24729048952545  -1.44260902793946  0.04214016419097
6   -0.99802112678127  -0.91902694248901  -0.05854641615740
6   -1.27486182430422  0.50424351229328  0.04950539574246
1   -0.43940356862927  2.52893390899527  0.03661376690713
1   -2.41828482036092  0.81844991043812  -0.15571730227548
1   -1.81893886471633  -1.60594297839902  -0.07390253594851
1   0.48815175666895  -2.44054396712888  0.24924961353914
1   2.40344207216012  -0.55726912539560  0.15742584895166
1   1.79377222945990  1.58855128135347  0.05915101945951





