%nproc=4
%Mem=
# TD=(NStates=1) B3LYP/6-31G(d,p)  

ABSSPCT

0 1
6   -0.26750025955922  1.34078558759021  0.01363590790647
6   1.09241467210341  0.90639035178373  -0.04899839133928
6   1.31255947720459  -0.46075491561265  0.01746354924362
6   0.28362605147192  -1.39841743114678  -0.00134807604524
6   -1.05795276135879  -0.88301456472020  0.00433669230103
6   -1.32911981962151  0.47792406403940  0.01131119184476
1   -0.67665689741364  2.49119495802813  0.07172274949905
1   -2.39922526697506  1.00096097285911  -0.12528641770849
1   -1.93410297205029  -1.61620234800575  -0.01656985595980
1   0.39757737824027  -2.48844469678089  -0.00308356691962
1   2.39072636820208  -0.81520248255161  0.00271764276494
1   1.84358435717827  1.61157374710436  0.15275652088250





