%nproc=
%Mem=
# TD=(NStates=1) B3LYP/6-31G(d,p)  

ABSSPCT

0 1
6   -0.26118720444728  1.35451495251157  -0.04943228811885
6   1.04322011640889  0.91520001836585  0.05149620400978
6   1.36857200172597  -0.40924512023621  -0.00179635439615
6   0.25103096677366  -1.39242146773436  -0.03294727736856
6   -1.13046294568066  -0.98444524257620  -0.01550190137055
6   -1.30536187036811  0.54284249694382  0.01918699488151
1   -0.31507677295930  2.51802431061592  0.04401337403039
1   -2.20354068477230  0.87964302219503  0.02926660785310
1   -1.88475272378345  -1.79152400118824  0.24481371070465
1   0.51481770212513  -2.55175817403420  0.11452997613847
1   2.43248763120061  -1.03547484344768  -0.00587260757055
1   1.88775548711796  1.70687695906552  -0.00820887582257





