%nproc=
%Mem=
# TD=(NStates=1) B3LYP/6-31G(d,p)  

ABSSPCT

0 1
6   -0.25540521210351  1.37159758174220  0.02572696611916
6   1.04451707340100  0.88720444795282  -0.08247162310878
6   1.36762762139363  -0.44019661758848  0.07446477090707
6   0.30636732230801  -1.39537553572536  -0.04130921965829
6   -1.11310192110416  -0.90752372538807  0.02837945259344
6   -1.33902620018664  0.47252507061601  0.00507220966948
1   -0.25989301378579  2.46276195366785  0.11132819634408
1   -2.39777263661906  0.92908082326015  -0.12565229594870
1   -2.05611931490937  -1.69571664250465  -0.07478183739982
1   0.41476555592339  -2.35739230315045  -0.03883928225020
1   2.32021482373236  -0.78502897751690  0.00393159843964
1   1.88676988391469  1.58645054208126  0.05549716927120





