%nproc=
%Mem=
# TD=(NStates=1) B3LYP/6-31G(d,p)  

ABSSPCT

0 1
6   -0.24928016743538  1.34780581843320  0.00770946367910
6   1.05144367151402  0.86732556581255  0.03086556400491
6   1.34072492383008  -0.44921964572105  -0.03389224079870
6   0.28867549992322  -1.38528322187255  -0.04639207022727
6   -1.05675958415601  -0.86811068891243  0.04038750129113
6   -1.35838957579397  0.50692417128884  -0.03285140661983
1   -0.66706629802784  2.31475228002284  -0.02372664217891
1   -2.42806827596579  0.65447255700111  -0.08694199766792
1   -1.94257378665992  -1.55590950566485  0.23135743520776
1   0.40723118384841  -2.37888919215372  0.08265945027885
1   2.34394396063296  -0.77590835897924  0.17240507621913
1   2.07912658857967  1.49896758352442  0.04590670197545





