%nproc=
%Mem=
# TD=(NStates=1) B3LYP/6-31G(d,p)  

ABSSPCT

0 1
6   -0.28261408522655  1.37343701228988  0.03010741388761
6   1.09476082104789  0.89082732416580  0.00154814155017
6   1.29744442776675  -0.45074648069515  -0.04451735543484
6   0.26088960276806  -1.38925518269519  0.05653155547285
6   -0.99913461204460  -0.91706582529939  -0.03339987120393
6   -1.38796934341787  0.49249289068176  -0.00578990844893
1   -0.48553499703480  2.51020195700629  0.14364699710223
1   -2.16285832908365  0.87055145866117  -0.22314427281428
1   -1.84470257676776  -1.48214238791910  0.04815767999015
1   0.54305785791863  -2.50541900401791  0.12894906294177
1   2.23041693145485  -0.91400762727890  -0.12701254961572
1   1.93605200051901  1.52231950134794  -0.02255782762946





