%nproc=
%Mem=
# TD=(NStates=1) B3LYP/6-31G(d,p)  

ABSSPCT

0 1
6   -0.21740354155120  1.38383370834068  -0.00271408614685
6   1.07148153277095  0.92195506940172  0.06088350948561
6   1.26046206284995  -0.43358394069845  -0.10548510763130
6   0.26673793402574  -1.37353866329185  -0.03143365761123
6   -1.10353644716667  -0.92859158015295  0.08100692980596
6   -1.30187512367999  0.42654996814737  -0.03509293105967
1   -0.34567126136696  2.47973375398505  -0.08378656548959
1   -2.30360350911376  0.75043177309416  -0.21553958367944
1   -1.81787494315971  -1.54494576630731  0.09672980953730
1   0.57764166372886  -2.36415569432614  0.08852442674870
1   2.27911199039005  -0.70948256357938  0.26105384413759
1   1.91920423203852  1.38813019526866  0.20187036884037





