%nproc=
%Mem=
# TD=(NStates=1) B3LYP/6-31G(d,p)  

ABSSPCT

0 1
6   -0.21700060143271  1.41540978870478  -0.03057974925872
6   1.08911204145547  0.92225159352809  -0.01635216817946
6   1.30917869360122  -0.44275532044659  0.08659738614806
6   0.22069187886551  -1.37372617714218  -0.08887499290940
6   -1.10317832161857  -0.98117931214887  0.01902983573871
6   -1.27673023469877  0.45310366921837  0.03542798888938
1   -0.54228704955672  2.38536833639703  -0.15995174880770
1   -2.18921364534587  0.77179667233883  0.02964271582205
1   -2.05424364075552  -1.60483371258455  0.15702515058469
1   0.41768188281297  -2.47223527854743  -0.13791261763651
1   2.35488825513184  -0.71380709937505  0.05689381083696
1   1.76941705285998  1.77785690641078  0.03167742790068





