%nproc=
%Mem=
# TD=(NStates=1) B3LYP/6-31G(d,p)  

ABSSPCT

0 1
6   -0.25047441384582  1.40834849078444  0.01617637180294
6   0.99562520883093  0.86371026094802  -0.05091570801655
6   1.30953810151334  -0.43891787571630  0.00786917735115
6   0.25924281176537  -1.41701817740253  0.03775159076461
6   -1.03943559897358  -0.88230838341361  -0.04169925854417
6   -1.27651198005609  0.45825356066442  0.01381591844822
1   -0.45201372348722  2.47934222024298  0.08789765103127
1   -2.30853832128805  0.94806231356939  -0.08739606401921
1   -1.97413519635362  -1.56753289098447  0.06117336284893
1   0.61502997199947  -2.52925079351343  0.16219307754069
1   2.34896469506047  -0.79360145527239  -0.26749439776382
1   1.80829892204578  1.58528997799757  0.33427813701364





