%nproc=
%Mem=
# TD=(NStates=1) B3LYP/6-31G(d,p)  

ABSSPCT

0 1
6   -0.23181374604388  1.39710545955323  0.00238221081529
6   1.10273194958620  0.94138629241871  -0.00527694229214
6   1.32393573522826  -0.47147124457546  -0.04323115793547
6   0.21812531989506  -1.36419294597232  0.02486135360030
6   -1.06929024221971  -0.92389330005830  0.01060747521117
6   -1.33342784546006  0.44378266622716  -0.03565706046997
1   -0.38958535211523  2.45476545057932  0.05695627358793
1   -2.40061365679858  0.68021724126179  0.10117899263480
1   -1.96620815615058  -1.59868814461870  0.10223482899520
1   0.53321530798464  -2.54434942249083  -0.03296612122460
1   2.35514418547285  -0.84055213516132  0.08913232052165
1   1.72021629282850  1.66625406674336  0.25944803707539





