%nproc=
%Mem=
# TD=(NStates=1) B3LYP/6-31G(d,p)  

ABSSPCT

0 1
6   -0.24965696398146  1.34342084302240  -0.03635554042596
6   1.09308285227516  0.87286599150947  0.01489181059588
6   1.35220826969876  -0.42066456510749  -0.03521765773925
6   0.20006579847705  -1.33953619656808  0.04254948332409
6   -1.06180866663237  -0.89439412124415  -0.05463791683592
6   -1.32587350785016  0.45432295286526  0.02559918582265
1   -0.45641641770034  2.28843569201948  0.15748208683112
1   -2.41687486353015  0.75687523592971  0.13606383528314
1   -1.83465789372641  -1.57193939877793  0.05119911041433
1   0.48805119422852  -2.53662988970476  0.12797553073683
1   2.21020581357787  -0.75048704070106  0.04622052821825
1   1.84698089259281  1.66775825829187  0.08386663868355





