%nproc=4
%Mem=
# TD=(NStates=1) B3LYP/6-31G(d,p)  

ABSSPCT

0 1
6   -0.26480389706228  1.37169158469435  -0.02924158736393
6   1.03471953393959  0.89992349043264  0.00169027510831
6   1.32903162568683  -0.48143093032139  0.07618334750185
6   0.27079520881109  -1.35092837189080  -0.08908216105740
6   -1.08164829755808  -0.90334722723613  0.04662902510215
6   -1.28107739251968  0.47871862937103  -0.01510049352825
1   -0.40150153268529  2.44038872116525  0.12923752712793
1   -2.38067898100755  0.76839703622042  0.14556313132651
1   -1.84715371994445  -1.75783930706670  0.02899285705541
1   0.37258018541124  -2.39562593829556  -0.02754066281401
1   2.31536953818685  -0.81459879134378  0.09856017847575
1   1.84513633605038  1.57298644874565  -0.21919659140227





