%nproc=4
%Mem=
# TD=(NStates=1) B3LYP/6-31G(d,p)  

ABSSPCT

0 1
6   -0.29542228750995  1.36679537702162  -0.01394515758827
6   1.03108401921139  0.95882326023499  0.04907323121643
6   1.34260253658705  -0.49136945657945  -0.02120581967255
6   0.26270420211203  -1.35098443115900  -0.04583858548734
6   -1.07414118371181  -0.95861008057873  0.09623352227035
6   -1.27931163600803  0.48624793018063  -0.08582966216426
1   -0.44727215746983  2.37875562702516  0.07560342291704
1   -2.26155074303942  0.97861595037969  0.01918499396130
1   -1.95066313616908  -1.56764670446068  0.06353357124955
1   0.44203186371102  -2.37199483836792  0.11693266177545
1   2.39458058708570  -1.10454760090084  -0.23790614085841
1   1.96285286831121  1.56957533914546  0.20651132606760





