%nproc=4
%Mem=
# TD=(NStates=1) B3LYP/6-31G(d,p)  

ABSSPCT

0 1
6   -0.27153250107558  1.40844653056640  0.00076465390800
6   1.13818925914941  0.93583293342185  -0.00368716437760
6   1.29494622222603  -0.45888076820109  0.03252940902053
6   0.25801562532246  -1.36105816957150  -0.02979516133352
6   -1.08499121824280  -0.94698871754368  0.06746677837135
6   -1.34260230157354  0.43467352410708  -0.04502465031687
1   -0.58538257698153  2.42228561046941  0.02418953402605
1   -2.38325810160824  0.94900847171901  -0.00478920819535
1   -1.77715596137684  -1.66539004156404  -0.03122300543792
1   0.46001738058465  -2.41624853433828  -0.23724393690441
1   2.30080654436583  -1.01384375146985  -0.05535387014865
1   2.04721051042425  1.52369222758275  -0.02730655712190





