%nproc=
%Mem=
# TD=(NStates=1) B3LYP/6-31G(d,p)  

ABSSPCT

0 1
6   -0.24678642147008  1.41725772491855  -0.00741647676081
6   0.99997929559771  0.85656428481990  0.00437357114093
6   1.32017134556625  -0.51701867423799  0.03070609196272
6   0.25034149251163  -1.38449301177501  -0.04743850280780
6   -0.97570398441370  -0.88118662666784  0.00772536290315
6   -1.34200886119615  0.50535577141586  0.04466098364904
1   -0.43659366055196  2.46640848685044  -0.17045413002980
1   -2.53104539058976  0.78342358919214  -0.02826643486791
1   -1.68399427764976  -1.72554861749043  -0.14857705761850
1   0.36252264099253  -2.46712253096619  -0.01306258451278
1   2.40964494580393  -0.70098892407273  0.17152160313695
1   1.79234078559791  1.64667387805613  -0.23230564532793





