%nproc=4
%Mem=
# TD=(NStates=1) B3LYP/6-31G(d,p)  

ABSSPCT

0 1
6   -0.25088418424957  1.33094849144221  0.00202497272157
6   1.13369431162968  0.92668863992011  0.04121850974930
6   1.36892026376501  -0.48556404251832  -0.02783173317693
6   0.21626909129673  -1.30029210002710  -0.00953266179531
6   -1.10231136132970  -0.94540191108456  -0.00433371748987
6   -1.32670759228318  0.44450864357859  -0.01158944953256
1   -0.53364565887359  2.44279449085141  -0.00532554514498
1   -2.35018429967390  0.85520874328538  -0.04372410742090
1   -1.95789492087623  -1.55611818956824  0.06814459097908
1   0.35544034116971  -2.36430681699448  0.27850600109690
1   2.37396846114202  -0.83078964734637  -0.13907719020408
1   1.67071675214344  1.84251548166942  -0.01661301801740





