%nproc=
%Mem=
# TD=(NStates=1) B3LYP/6-31G(d,p)  

ABSSPCT

0 1
6   -0.27269364200576  1.40063193340193  -0.05053585626951
6   1.07861010719487  0.86590648918156  0.02031804097408
6   1.32534030524560  -0.43281164937795  -0.01633145470788
6   0.28521759155079  -1.39538588417730  -0.03252634269261
6   -1.05232429972947  -0.90190067135544  0.05634387466441
6   -1.34804234981624  0.47977221049809  -0.03615015332972
1   -0.56463392734597  2.47032554349914  -0.03628962015827
1   -2.40302276506057  0.81491645191575  0.32954437422286
1   -1.97208819618614  -1.58153712771183  0.05728458793752
1   0.42424436675655  -2.48559607795562  -0.09991653934891
1   2.38381121057172  -0.88028827697381  0.13950190463448
1   1.94419442205772  1.47711849806240  0.34382311730760





