%nproc=
%Mem=
# TD=(NStates=1) B3LYP/6-31G(d,p)  

ABSSPCT

0 1
6   -0.24028403854499  1.43401089601983  -0.01841703318405
6   1.05151409078982  0.95349624588689  0.03845528066847
6   1.27496776142014  -0.50150219171683  -0.06059724996081
6   0.23988112621801  -1.42005824387495  0.03628950863333
6   -1.02566201521917  -0.86990557818140  0.01723653383854
6   -1.31485119755355  0.41045879640781  -0.01982068192861
1   -0.46437272721369  2.31080237491203  0.06872214937234
1   -2.39628526227945  0.85616220723243  -0.20894800574458
1   -1.91021553472574  -1.54459433861905  0.22583321502961
1   0.62864479902837  -2.47801967903430  -0.18146098633913
1   2.32124382823403  -0.80116459333464  -0.05378350201650
1   1.94018090708647  1.59386660585053  0.19148952384196





