%nproc=4
%Mem=
# TD=(NStates=1) B3LYP/6-31G(d,p)  

ABSSPCT

0 1
6   -0.27635845443455  1.36281710585061  -0.00539096386596
6   1.12552705665238  0.94425622840076  0.02276231913834
6   1.31046200382533  -0.46747482172243  -0.02868414915742
6   0.21978276539841  -1.32803308691800  -0.00501471608019
6   -1.07279025069212  -0.94686962981540  0.02907321861410
6   -1.29693136278372  0.44864024219570  0.02416778870649
1   -0.47596872412079  2.42655318127235  -0.40609514383634
1   -2.40250519980510  0.82980344102189  -0.00172078065363
1   -1.91768909677429  -1.60151611615866  -0.19794232011616
1   0.46976654976133  -2.52861980687535  -0.13349877635437
1   2.27304670036206  -1.11071685725346  0.06792299570389
1   1.88587462797472  1.89867203386394  0.11094973649639





