%nproc=4
%Mem=
# TD=(NStates=1) B3LYP/6-31G(d,p)  

ABSSPCT

0 1
6   -0.26668418364683  1.40283274849632  0.00757029140318
6   1.03075513731861  0.81935789117981  -0.02396856654203
6   1.35753104961244  -0.45354751354553  -0.03596424438713
6   0.25405196271316  -1.33737986041881  0.02314972771176
6   -1.08475541531616  -0.90620004044045  -0.01179420956735
6   -1.32502356637093  0.47161624462963  -0.00131484984286
1   -0.31863497080441  2.33954612075012  0.16620872646674
1   -2.32406958409371  0.82350391592520  -0.11909554525597
1   -1.89144306785181  -1.69266244025108  0.15450081547402
1   0.54523349620621  -2.35249717194574  0.04141501419446
1   2.48454091293921  -0.73848143189086  0.12707621401120
1   1.91903782513810  1.65590765365104  0.20481880135827





