%nproc=
%Mem=
# TD=(NStates=1) B3LYP/6-31G(d,p)  

ABSSPCT

0 1
6   -0.28034497176401  1.39860440557552  -0.03632983513953
6   1.10668614468638  0.90105142151736  0.00451869697917
6   1.23896374759264  -0.43012139417500  0.01197222858648
6   0.26167443763091  -1.39342882344263  0.00823041961070
6   -1.02171214969642  -0.89000466885713  -0.05124198523234
6   -1.33531407725291  0.44490538804573  0.03888443974968
1   -0.23607021816948  2.40258750756917  -0.03815003424082
1   -2.32164571206709  0.69408121834740  0.22542262112327
1   -1.71783095845040  -1.73582054929051  0.01220632837594
1   0.33719972898383  -2.46642759021196  0.10678598233188
1   2.20302162450140  -0.82199712027655  -0.03355351161161
1   2.04934323231036  1.51873028989711  0.08769922300250





