%nproc=4
%Mem=
# TD=(NStates=1) B3LYP/6-31G(d,p)  

ABSSPCT

0 1
6   -0.22247034671313  1.36316833555965  0.04232221243434
6   1.07025768842137  0.99120080635856  -0.08507454292329
6   1.31848851220788  -0.45943226544989  0.09010901996322
6   0.19903122913244  -1.38085284902826  -0.05800123828479
6   -1.11281881390322  -0.90148623832701  -0.01569039934829
6   -1.24818807837082  0.37813454227291  -0.03760977547019
1   -0.47455760519025  2.42273283387259  0.24991802308086
1   -2.38585619773512  0.78020787209356  0.24864345255326
1   -2.11408276629144  -1.62185045790800  0.14283119862122
1   0.53888537343344  -2.29145032190336  0.28397501101068
1   2.35800997691391  -0.89241762546365  0.03916242982352
1   2.02205698971381  1.72672648009336  -0.01756667578999





