%nproc=
%Mem=
# TD=(NStates=1) B3LYP/6-31G(d,p)  

ABSSPCT

0 1
6   -0.25866662786261  1.43491408636692  -0.01536875774005
6   1.02336681746030  0.92854608287362  0.02726028032786
6   1.27095780632843  -0.46522608840363  -0.03679463335472
6   0.30960104840646  -1.44679224843916  0.03192718751434
6   -1.03960182721922  -0.93391508341975  0.01155580834698
6   -1.30070440172864  0.48249380986862  -0.01284143097577
1   -0.47038401804540  2.55648883367478  -0.09364124126747
1   -2.24644920256371  0.83797601606901  0.01450884149861
1   -1.90492476213508  -1.48410317173537  0.01685852992444
1   0.38962875533294  -2.64480357922914  -0.14737968438433
1   2.15543426870900  -0.87902531847888  -0.08807791318890
1   2.00579792753871  1.61651183951650  0.16799349016183





