%nproc=
%Mem=
# TD=(NStates=1) B3LYP/6-31G(d,p)  

ABSSPCT

0 1
6   -0.23009181362442  1.33295698724051  -0.02502508485951
6   1.09091524709194  0.95300098876343  0.06401069604050
6   1.28135256651522  -0.46274033611068  -0.02164615859139
6   0.24943937195171  -1.40074371746239  0.00864686265927
6   -1.04067571193381  -0.89939852630958  0.02122884086554
6   -1.33459079986000  0.46590750804919  -0.04059387472048
1   -0.57778532401067  2.28497692661228  -0.01009192347031
1   -2.37738348863887  0.82401526803070  0.00033453223276
1   -1.92127760774331  -1.48335768227447  0.11951336074812
1   0.42287896937916  -2.39847190197156  0.05229769703153
1   2.30028186326399  -0.80201307521443  -0.40494994480592
1   1.95192063544952  1.71985531799125  0.13013367806513





