%nproc=4
%Mem=
# TD=(NStates=1) B3LYP/6-31G(d,p)  

ABSSPCT

0 1
6   -0.24662616712356  1.36609651550151  0.00011950330448
6   1.03938984934291  0.90136106669001  0.05237869039587
6   1.31620150748402  -0.44662239237860  -0.03228438746951
6   0.25895665812984  -1.38729477903260  -0.03367756083465
6   -1.07155189558528  -0.83212560342928  0.03544857882427
6   -1.28151613491276  0.42354864367819  -0.00433037677691
1   -0.39781623205538  2.51969952447868  -0.15201204701664
1   -2.48689538348398  0.70745095308467  -0.21350428552534
1   -1.99195678584218  -1.63629098705817  0.09050988334343
1   0.55731427244608  -2.61784368310544  0.05191631468527
1   2.22203114575698  -0.87823554399102  -0.00777191560773
1   1.86842603584483  1.67469952856904  -0.03752062659668





