%nproc=
%Mem=
# TD=(NStates=1) B3LYP/6-31G(d,p)  

ABSSPCT

0 1
6   -0.28741903600969  1.40726012426920  -0.01616213592587
6   1.08863298912865  0.94580037144949  0.02248672999049
6   1.31402881915834  -0.56716420529932  0.00500844577865
6   0.28642233282341  -1.32763093536201  -0.02856424734301
6   -1.03268342315147  -0.91100802914720  -0.01665220828521
6   -1.36539898600212  0.45203661254216  0.02725135427111
1   -0.45825900744610  2.53951818785217  -0.21932767661860
1   -2.49002575274996  0.84195527463089  0.10064859797665
1   -1.78808114169448  -1.63441061935918  0.07797205840854
1   0.40112868201663  -2.39353010327046  0.05279128391178
1   2.31787250051106  -0.87302028778822  0.06109577839540
1   1.94721634355693  1.45927441652849  0.01626634899288





