%nproc=4
%Mem=
# TD=(NStates=1) B3LYP/6-31G(d,p)  

ABSSPCT

0 1
6   -0.26784331906855  1.35518351906582  -0.00622786807515
6   1.09846891090652  0.89211376359122  0.04548622947947
6   1.27723333815116  -0.45572421874595  -0.01315824741624
6   0.25298049299594  -1.35184569491953  0.02555895289639
6   -1.06371699366897  -0.89461822379832  -0.03005280193207
6   -1.28719946517024  0.47591166726872  0.02913881956792
1   -0.53794498156626  2.47120670435776  -0.20883654287822
1   -2.29217026430069  0.63724062038441  -0.00903368203483
1   -1.90399811488833  -1.64034336778520  -0.16722966722675
1   0.46811878821692  -2.54421694366426  0.08377923683417
1   2.30441288944864  -0.82060810657726  -0.22777187795753
1   1.82893364263593  1.69701642577430  -0.15566376584649





