%nproc=
%Mem=
# TD=(NStates=1) B3LYP/6-31G(d,p)  

ABSSPCT

0 1
6   -0.25884017296097  1.39904533194765  -0.03731540215543
6   1.13554461481109  0.92759872974336  -0.02859848734720
6   1.30620680428392  -0.44935428744060  -0.04075899038149
6   0.25692588311991  -1.40177268903542  -0.01406789925982
6   -1.05864178056861  -0.94145168508546  0.02313827764574
6   -1.36055121712539  0.46417131918016  0.00940562490985
1   -0.50463101647044  2.48227865492369  0.15794945394295
1   -2.30200248974406  0.78172870535240  0.16484786828835
1   -2.05515717801652  -1.49548499680056  -0.03400578454607
1   0.44106682719083  -2.51642927585044  0.12340189499247
1   2.33832907631109  -0.93210381619962  0.36648599728712
1   1.85410833490568  1.77678455843184  0.40758779891452





