%nproc=4
%Mem=
# TD=(NStates=1) B3LYP/6-31G(d,p)  

ABSSPCT

0 1
6   -0.25156084334181  1.36178259922306  0.00803538516083
6   1.08521107537426  0.93062132384705  0.01333028908523
6   1.30612089729329  -0.46731716430954  -0.02413441249384
6   0.25403397581598  -1.38317574874606  0.06588884976286
6   -1.03720292175759  -0.90160124245808  -0.03006785127642
6   -1.35980582582302  0.46578731522595  -0.02640718380061
1   -0.41458178967419  2.36595169063975  -0.14746858812853
1   -2.33590745942921  1.00822538298854  0.31361153466004
1   -1.83996184845651  -1.73475595001981  -0.12753075243229
1   0.43459218987274  -2.48073467515393  -0.07954955603155
1   2.33978469479430  -1.02219124225992  -0.14905844735193
1   1.84170600417740  1.81472208832705  0.04022161346634





