%nproc=
%Mem=
# TD=(NStates=1) B3LYP/6-31G(d,p)  

ABSSPCT

0 1
6   -0.23270235919948  1.38408631626851  0.00770729269826
6   1.03953139238608  0.89990566068970  0.03338623395383
6   1.35753512057885  -0.46806933311483  -0.02376742160789
6   0.21258063316765  -1.38161606667961  0.05347087308760
6   -1.02930583829064  -0.89794817582606  -0.00285081966461
6   -1.32957911903747  0.45840296887443  -0.04443607018496
1   -0.41066933101897  2.53610918941055  0.13100100517598
1   -2.46072711197236  0.67450744574536  -0.10041825678926
1   -1.73663155347505  -1.65393880941787  0.02954270802822
1   0.34536282761147  -2.27957446683086  0.05156066973125
1   2.24874777101075  -0.88138726593119  -0.45636809120133
1   1.80480960220145  1.63898902189976  0.01919713845926





