%nproc=
%Mem=
# TD=(NStates=1) B3LYP/6-31G(d,p)  

ABSSPCT

0 1
6   -0.26397293447335  1.38889824529945  -0.04154131162937
6   1.05097902299822  0.90460781257883  -0.00671968840853
6   1.29877243710577  -0.44736405366732  0.07170596356075
6   0.25184092336884  -1.41468554466055  -0.05976834113786
6   -1.02400994076199  -0.93411995138497  0.00015318371005
6   -1.31085795759763  0.47444776793133  0.08027561366384
1   -0.19284066692705  2.52999616670118  -0.06812038426147
1   -2.34388149403874  0.97309218158851  -0.10584945125433
1   -1.84777728615593  -1.68095120261418  -0.18262305409743
1   0.24772475237888  -2.52213712454865  0.04393351847618
1   2.35428400276741  -0.57372771232154  -0.04139254797262
1   1.78127734120455  1.56870868185137  -0.14646872417944





