%nproc=4
%Mem=
# TD=(NStates=1) B3LYP/6-31G(d,p)  

ABSSPCT

0 1
6   -0.26594824125263  1.39535645609391  0.00785375966227
6   1.04298191602492  0.87010790094935  0.04731252812973
6   1.31043556821142  -0.44237190706678  -0.06733028259383
6   0.25083255302121  -1.33051474511047  0.04649471922637
6   -1.06576658007392  -0.93114764613011  0.01968325853253
6   -1.27522816797180  0.44264046357408  -0.05275132620238
1   -0.47044367681659  2.60396881480754  -0.05795063196734
1   -2.26629983072412  0.88860550698537  -0.04012112181751
1   -1.89832658050933  -1.76275893069141  0.06197013403224
1   0.39374452039796  -2.37643203175917  0.01172667562684
1   2.40754578091866  -0.82647560766011  -0.26839231497480
1   1.90195741230602  1.35722227160602  0.20502046456411





