%nproc=4
%Mem=
# TD=(NStates=1) B3LYP/6-31G(d,p)  

ABSSPCT

0 1
6   -0.28701816909424  1.33646137241754  0.01925476995448
6   1.15892741604889  0.94931183489054  -0.05011603616861
6   1.30111117141867  -0.42666369551111  0.02535205249682
6   0.20683916445477  -1.36248898187472  -0.01208732371089
6   -1.08150727777051  -0.94108936664935  0.01639482648908
6   -1.29437851308017  0.46560509451821  0.00992082343512
1   -0.57923643687152  2.42406330739366  -0.08524869200036
1   -2.30403085587858  0.89748661311389  -0.05328342538447
1   -2.03736345765993  -1.76282126481312  -0.05136025188613
1   0.61574499866360  -2.37895419351298  -0.14488874265707
1   2.32982126256842  -0.99327483261298  0.10620720100257
1   1.92909194719478  1.58583517495541  0.11191245872290





