%nproc=4
%Mem=
# TD=(NStates=1) B3LYP/6-31G(d,p)  

ABSSPCT

0 1
6   -0.29447404730884  1.30312255692118  -0.05068470322662
6   1.11428430178197  0.85900037621383  0.09885983558484
6   1.32689190100472  -0.47076647002530  -0.02378460880818
6   0.31849241614222  -1.29207382427485  -0.06155852966759
6   -1.11109843024232  -0.87449363777609  0.06474418140752
6   -1.36457374081349  0.46314208114989  -0.03609659945652
1   -0.30750448854664  2.44538701243778  -0.13653977592731
1   -2.38668113175432  0.87997007576131  0.09746535047167
1   -1.67550834491941  -1.67536705907629  0.06313630266850
1   0.33989980848421  -2.35774730678057  0.18585227114498
1   2.28380469315549  -0.88510445263701  -0.22900894472048
1   1.87429408444480  1.68862028810841  0.09803873527105





