%nproc=4
%Mem=
# TD=(NStates=1) B3LYP/6-31G(d,p)  

ABSSPCT

0 1
6   -0.32766714453312  1.35779596092332  -0.03315397552760
6   1.05912549154773  0.88081587772195  -0.00661055207964
6   1.34246516271545  -0.48793756744046  0.02026871899881
6   0.27553097918588  -1.39762302482661  0.00014436461434
6   -1.08131787684072  -0.87998228238926  -0.02755722668581
6   -1.30194987992621  0.49215410021644  0.02716210147769
1   -0.32371110256102  2.42877688825022  0.01452872041020
1   -2.38600363287557  0.86001617268863  0.11747240358302
1   -1.68814846521483  -1.56374816983310  0.10108906052802
1   0.44096544010773  -2.27720189870908  -0.06815824311588
1   2.45096334403047  -0.78345444698560  0.02609129424343
1   1.93061018125075  1.68558755931381  0.10063158373594





