%nproc=
%Mem=
# TD=(NStates=1) B3LYP/6-31G(d,p)  

ABSSPCT

0 1
6   -0.25751458974044  1.33383044447212  -0.02067299364243
6   1.09639018124641  0.91169188984098  0.01442700712483
6   1.33344006363507  -0.47408040780808  0.01825812446768
6   0.24436082337120  -1.32233565312206  -0.04622753303333
6   -1.07931660026443  -0.90957218328821  0.01159546935256
6   -1.33519378622504  0.44957420667273  0.01796898434878
1   -0.43496029219977  2.38423194698995  -0.06357645385182
1   -2.36431054374440  0.76254314760386  -0.11034456266748
1   -1.94980405470740  -1.49275484324308  0.20665724010597
1   0.38166455030366  -2.46572371345295  -0.03132206130161
1   2.42781226498497  -0.59006837807113  0.02591558018068
1   1.90923375463695  1.52608308865415  0.05429703590942





