%nproc=4
%Mem=
# TD=(NStates=1) B3LYP/6-31G(d,p)  

ABSSPCT

0 1
6   -0.20397912246249  1.39036633826117  0.01620423542249
6   1.03244388070405  0.95031929964069  -0.01002494103774
6   1.31601667516415  -0.44645465417591  0.03481427258411
6   0.20215591203192  -1.38736952331028  -0.00461129955310
6   -1.06963975275349  -0.92891380901716  -0.05641298540743
6   -1.29455036813559  0.43503201942954  0.05453018922583
1   -0.20563046483426  2.48738765908896  -0.06516416660766
1   -2.39418843953157  0.66496180608658  -0.12708921328103
1   -1.93582460735364  -1.58802204603424  0.00922725716869
1   0.54575541156456  -2.55621917849297  0.05593948241427
1   2.31868378279833  -0.82113474936095  0.02470429139384
1   1.85348235468812  1.72624342301081  -0.30436629716209





