%nproc=
%Mem=
# TD=(NStates=1) B3LYP/6-31G(d,p)  

ABSSPCT

0 1
6   -0.28495026191991  1.40828607003302  0.03864477934614
6   1.02239792821396  0.91589089133977  -0.05750364392676
6   1.30941037756410  -0.53651403446408  -0.00822412866475
6   0.29643495816581  -1.36199197962443  0.06261498055463
6   -1.01085649197351  -0.92514442283576  -0.06711804737904
6   -1.34544216616586  0.46955981586566  -0.01231494826898
1   -0.36227717833372  2.59890085402656  0.07552469086898
1   -2.37608480769236  0.94530709461768  0.14493224024567
1   -1.89408669373638  -1.45941525458906  0.08543797242837
1   0.46882819428719  -2.42583685276678  0.16921180262104
1   2.37459504564017  -0.81102579926446  -0.13388548118443
1   1.96900867395535  1.44980520188277  0.27437311870203





