%nproc=
%Mem=
# TD=(NStates=1) B3LYP/6-31G(d,p)  

ABSSPCT

0 1
6   -0.28372141718443  1.34610567717930  0.01711585044051
6   1.08751969222119  0.87652960556552  -0.00510117983662
6   1.36202059567092  -0.42548364308336  -0.06978052301335
6   0.21338441399950  -1.37437279976160  0.06954623681087
6   -1.04686783646486  -0.95873154654620  -0.05952913209029
6   -1.31784162112234  0.53636812520592  0.00524629447304
1   -0.58370957266383  2.49468128995459  0.25794240818254
1   -2.29352266367442  0.86525458795783  -0.12393159143903
1   -2.08633118563120  -1.69712435501628  0.12829252080180
1   0.59613719869509  -2.40767996290307  0.18389961707147
1   2.29555441247132  -0.92420690035995  0.09805901086507
1   1.93078972920091  1.70039283041670  0.03869430459491





