%nproc=
%Mem=
# TD=(NStates=1) B3LYP/6-31G(d,p)  

ABSSPCT

0 1
6   -0.28824484453809  1.39263386894492  -0.05524064997270
6   1.06263906057957  0.90658696244096  0.03387695138367
6   1.26079225427387  -0.45306610295577  0.02453092308996
6   0.30918762550621  -1.43250024635886  -0.05259401980989
6   -1.02273710266423  -0.89225651906718  0.00459332406268
6   -1.32410266513641  0.51337235794998  0.06368700769963
1   -0.39417921770430  2.54964282703267  -0.10130632392217
1   -2.34792858213264  0.74948570552261  -0.09339661670791
1   -1.80889995216467  -1.64445279324789  -0.01831237520134
1   0.47845914717473  -2.63595082512809  0.05519818394822
1   2.15113491306374  -0.95134180097609  -0.00809159756955
1   1.92114972503040  1.54067113540044  -0.03662342729395





