%nproc=4
%Mem=
# TD=(NStates=1) B3LYP/6-31G(d,p)  

ABSSPCT

0 1
6   -0.26217229742749  1.34323536510328  0.05839729995996
6   1.06648169831612  0.91098658766278  0.00642927615440
6   1.29744323158392  -0.44016905750373  -0.05292647881571
6   0.28557162025916  -1.34588933516260  -0.02095849613722
6   -1.11053011497000  -0.91110154788459  0.00484049962118
6   -1.27030873919735  0.44475851755875  -0.06002945577209
1   -0.57118119083548  2.39103647303486  0.08196085264847
1   -2.30491941013066  0.90545261997993  -0.03581763954116
1   -1.93560922320520  -1.67454054895653  0.25138666675929
1   0.35164397360917  -2.36936966084747  0.37028299415019
1   2.31547860781800  -0.78188028559268  0.15774278419338
1   2.06722557503298  1.44075644022318  0.01324390307489





