%nproc=4
%Mem=
# TD=(NStates=1) B3LYP/6-31G(d,p)  

ABSSPCT

0 1
6   -0.21691503823100  1.39775807927418  0.08165614120565
6   1.04941623625696  0.95068753747575  -0.08322183959970
6   1.22213198868725  -0.48562524667375  0.02884339514818
6   0.24928730536203  -1.38736308483765  0.01383420336872
6   -1.03764792663793  -0.91810711232179  -0.05019855291825
6   -1.26974854294693  0.42582327794247  -0.01004471664386
1   -0.31108135885877  2.64078795002610  0.14542478769814
1   -2.22798323893886  0.70208241859579  -0.11500957548898
1   -1.82221319799214  -1.67484102658144  0.14242359961131
1   0.35391515939153  -2.45460982609563  0.14033904454509
1   2.30693515431510  -0.76038079055028  0.08332914692166
1   1.78221310295429  1.73390093471039  -0.08873108369414





