%nproc=4
%Mem=
# TD=(NStates=1) B3LYP/6-31G(d,p)  

ABSSPCT

0 1
6   -0.32773669883764  1.39215072788042  -0.01922334840756
6   0.99050282839561  0.86162350394984  -0.00735800238406
6   1.36584693501818  -0.52461247772474  0.05299853473387
6   0.26369733811544  -1.39216482006685  -0.07665626138564
6   -0.98924528337828  -0.80866513627497  0.02894273780056
6   -1.30320762631416  0.49880939408418  0.00938267335648
1   -0.40839669444882  2.48561211042003  -0.05049390232236
1   -2.41385477702414  0.66597450810448  -0.04182849423816
1   -1.78684765825181  -1.65736616836549  0.21535623944244
1   0.37596804708586  -2.54805076449156  -0.06070263350746
1   2.35420429847014  -0.82252510370048  0.06119993951424
1   1.82622686174972  1.56818022438561  0.06832491428725





