%nproc=4
%Mem=
# TD=(NStates=1) B3LYP/6-31G(d,p)  

ABSSPCT

0 1
6   -0.24634525372404  1.36168422997517  -0.05999272760918
6   1.05104530022375  0.89077694777135  0.07638775062034
6   1.33445522108519  -0.46121001094395  -0.02855381128670
6   0.22951998622888  -1.34571250249037  -0.00228732825539
6   -1.05201733567573  -0.92801596406671  0.00371987488969
6   -1.32878082613096  0.48632279969772  0.00461760324392
1   -0.30485754104038  2.43832023700971  -0.14383157776870
1   -2.33661531690560  0.78651941223537  0.04726561858962
1   -1.84384507548714  -1.71041062612776  0.26539460277850
1   0.56048334926013  -2.39811012052686  -0.19471493820603
1   2.18081767254907  -0.73621972269883  -0.06045938760997
1   1.87843148049664  1.56225077273074  0.12186126836784





