%nproc=
%Mem=
# TD=(NStates=1) B3LYP/6-31G(d,p)  

ABSSPCT

0 1
6   -0.25756304237552  1.36214057908369  0.02691609757992
6   1.05804614491423  0.90187874282155  -0.01978258374190
6   1.32117587825560  -0.45548953240492  -0.03340161934158
6   0.25363852929660  -1.34058904442145  0.07688225852286
6   -1.09407744629333  -0.93990308080569  -0.02615118298541
6   -1.27928184445782  0.47779476111417  -0.03285754599633
1   -0.53444135407595  2.55977299923522  0.21095921172344
1   -2.36716656821590  0.70544413055533  -0.06474142969527
1   -1.80382284955657  -1.69609245249427  0.05636764960175
1   0.26420401805455  -2.46463772613115  -0.05320453999512
1   2.39207510872804  -0.74946951580986  -0.12880157808965
1   2.02562818705914  1.50492558386458  0.07705703717292





