%nproc=
%Mem=
# TD=(NStates=1) B3LYP/6-31G(d,p)  

ABSSPCT

0 1
6   -0.19853550484321  1.37014058973855  -0.02402425619366
6   1.02197942909645  0.87124453652191  0.04015281861972
6   1.37310858841663  -0.46084243362177  -0.02039370191821
6   0.21888129886963  -1.33088519343149  0.02134460248021
6   -1.05404454220161  -0.95336979687642  -0.00782431169794
6   -1.34881979012482  0.51725939090284  -0.01226402459959
1   -0.56830335505283  2.49613714601814  -0.01895180114835
1   -2.35817006640087  0.81926383475285  0.08691489290586
1   -1.72111037352034  -1.76750878735983  0.12490522884902
1   0.43526366273038  -2.49708563482617  -0.14826787792873
1   2.33679988836487  -0.91840566749758  -0.02689117385544
1   1.72689671119207  1.71350747196009  -0.01650226201884





