%nproc=4
%Mem=
# TD=(NStates=1) B3LYP/6-31G(d,p)  

ABSSPCT

0 1
6   -0.26564166335014  1.35513552130083  -0.00912756515395
6   1.11685614316616  0.89972786453311  -0.02259476225043
6   1.33728977789881  -0.47430480059514  0.03840344686432
6   0.24994304588490  -1.28931940516671  -0.00474131809980
6   -1.12429580535716  -0.94168131982848  -0.03383388767400
6   -1.30749679127369  0.44051460791761  0.01446189934146
1   -0.47140757205840  2.46745109756442  -0.04151303280603
1   -2.41629212786858  0.94453278531945  0.11330781254495
1   -1.90487310696261  -1.75047385261491  0.15605757818022
1   0.47134876180914  -2.39749789540516  0.00020365090095
1   2.37166184204751  -0.79581868458804  -0.11277593679174
1   1.86834162719845  1.61748747116286  0.15744499460113





