%nproc=
%Mem=
# TD=(NStates=1) B3LYP/6-31G(d,p)  

ABSSPCT

0 1
6   -0.22334650977670  1.36818265093152  -0.01443415339247
6   1.05577649459356  0.89072180003446  -0.05463610618839
6   1.29492885158955  -0.44803129962095  -0.00747069098647
6   0.25332203693941  -1.38101481251845  0.05774975362694
6   -1.02066278053618  -0.90864086802861  -0.05419262776624
6   -1.34578227790319  0.48317040525998  0.03537962626901
1   -0.49876693789413  2.42105679406622  0.19747938516448
1   -2.23906682921592  0.88942013915104  0.18773315177246
1   -2.00659997332687  -1.72657305327407  -0.17764471971976
1   0.48272901868814  -2.52483203314646  0.06102751793102
1   2.23837540091727  -0.76348299356986  0.12384644330475
1   1.86523239648717  1.67685369912676  0.15390186648152





