%nproc=4
%Mem=
# TD=(NStates=1) B3LYP/6-31G(d,p)  

ABSSPCT

0 1
6   -0.16947903025584  1.38163009317081  0.01754908367586
6   1.01611219906970  0.91417411355659  -0.03518506606389
6   1.26739605866130  -0.44741022533088  0.01888623568198
6   0.30301776310702  -1.39573210463666  0.04535152797063
6   -1.07603854595311  -0.91856929878637  -0.02366680783604
6   -1.33184551739495  0.44112386750597  0.02177862739707
1   -0.47463047542163  2.46220870032269  -0.22935023235296
1   -2.25348825701545  0.89320783629551  0.00316503808407
1   -1.97453511553689  -1.55346951143536  -0.13427960393167
1   0.47329187480496  -2.27916946572715  -0.20602896023046
1   2.37116926655386  -0.83821554866546  -0.18764065095357
1   1.83450342598684  1.60076264822303  0.14352946715070





