%nproc=4
%Mem=
# TD=(NStates=1) B3LYP/6-31G(d,p)  

ABSSPCT

0 1
6   -0.22748592995505  1.32758183557259  -0.04917535466862
6   1.05180024560997  0.91687795463642  -0.00985211429110
6   1.38195781338622  -0.45160211695384  0.08357119764290
6   0.22462197163380  -1.31975226711839  -0.10040031176298
6   -1.05573380957667  -0.90834073689644  0.08525917995100
6   -1.38468813943235  0.44325290696602  0.02545962354101
1   -0.28544633417314  2.35164452040161  -0.06155911188092
1   -2.35858386444059  0.88596518822688  -0.05871426870570
1   -1.96612161415111  -1.51981977749622  -0.08876758244751
1   0.33048116430866  -2.58760052237507  -0.32338825939774
1   2.50509012233028  -0.81586723317507  0.15290890412866
1   1.86658380569770  1.64211255135781  -0.06913549329957





