%nproc=
%Mem=
# TD=(NStates=1) B3LYP/6-31G(d,p)  

ABSSPCT

0 1
6   -0.30511129081837  1.35401400755487  0.02582053481669
6   1.05239696462744  0.89293641386215  0.03190406418917
6   1.29466920913846  -0.48193237903143  -0.07231815141108
6   0.29957759924882  -1.36449726948902  0.00952704590414
6   -1.04868508889874  -0.87172618072479  0.04977117875566
6   -1.30693382614577  0.46910412915300  -0.03330090618072
1   -0.36725523153582  2.38527762468635  -0.13226111851646
1   -2.30751573200676  0.81564308298559  -0.17299586436302
1   -1.88941278474977  -1.48424546715080  -0.09197362365278
1   0.43542279404679  -2.39780177455406  0.07249699905621
1   2.36830656922751  -0.91552437695137  -0.01637675438916
1   1.92730658069095  1.63978324492337  0.11603472911813





