%nproc=4
%Mem=
# TD=(NStates=1) B3LYP/6-31G(d,p)  

ABSSPCT

0 1
6   -0.26963238278320  1.37552370104216  -0.02693208620954
6   1.06008843331394  0.88866617554955  0.00231519985417
6   1.31811977619266  -0.44616371563804  0.01123166937485
6   0.26843004136643  -1.37733373861647  -0.00612986092758
6   -1.04027806868463  -0.87201906371950  0.02467479416965
6   -1.32294712506816  0.45084943990764  0.02360091017308
1   -0.48848303532336  2.52129840312846  0.07242847554339
1   -2.37625174107144  0.89357764785198  -0.21092357541160
1   -1.82884554954521  -1.73233430763526  -0.10109897839729
1   0.31391382822633  -2.53033208035843  -0.01415787570944
1   2.33978772238161  -0.88013378473086  -0.18456606199251
1   1.86246754087963  1.46718291854369  0.08933371689950





