%nproc=
%Mem=
# TD=(NStates=1) B3LYP/6-31G(d,p)  

ABSSPCT

0 1
6   -0.19471958558562  1.37544657083932  -0.00151700369276
6   1.04359642826161  0.94579369745265  0.02299783719156
6   1.27144100912385  -0.45464028097161  0.01807720864121
6   0.23066467112041  -1.37035601809307  -0.00191308679740
6   -1.05869695972224  -0.99327741137411  -0.03033278405597
6   -1.30298575574268  0.47650505926957  0.03459327107516
1   -0.43509431025472  2.43504194035937  -0.00811359990527
1   -2.19819945126653  1.01115126346231  -0.22972554088608
1   -1.94617921894367  -1.67348715548923  -0.00210213484387
1   0.62089233999386  -2.38826689727608  0.20436921769661
1   2.26574377197940  -0.78900503825376  -0.32530265388616
1   1.86416599605394  1.63634121033949  -0.13523540535813





