%nproc=4
%Mem=
# TD=(NStates=1) B3LYP/6-31G(d,p)  

ABSSPCT

0 1
6   -0.22500419754018  1.31773383211217  -0.00675412390040
6   1.09465102622424  0.89869187217552  0.00274913747543
6   1.29596226101674  -0.44106839228593  -0.01378345214067
6   0.23162332982331  -1.28098228695221  0.06626470914862
6   -1.12123131479514  -0.93989020870228  -0.07348627259798
6   -1.29404771174897  0.45642381295858  -0.00738022173619
1   -0.63393264066607  2.45013925843639  0.25533579251710
1   -2.21062524161118  0.87670961238823  0.35872749043390
1   -2.03856618990876  -1.87875209150530  -0.04403076613683
1   0.63385775270828  -2.39325557020528  -0.00860838808546
1   2.44152279689530  -0.75342194497241  0.18758937123000
1   2.05077513103567  1.52398588366881  -0.32033813349579





