%nproc=
%Mem=
# TD=(NStates=1) B3LYP/6-31G(d,p)  

ABSSPCT

0 1
6   -0.27468476093971  1.39650378248398  0.01272280048350
6   1.03305304751250  0.87377315912702  -0.04303219410731
6   1.39149996964441  -0.47378516879002  0.01115554202624
6   0.24038483506882  -1.34318701353827  -0.01897041482816
6   -1.05333989764358  -0.89380773805214  -0.01500660095588
6   -1.34728405079374  0.45940049133994  0.04336053872120
1   -0.41645223598403  2.52599046927203  -0.18376683390739
1   -2.32515895539466  0.75421197497605  0.10151271930809
1   -1.97100978924889  -1.62782048505051  -0.11219229915446
1   0.41369005400334  -2.48029213018897  -0.05291822872398
1   2.52263299650307  -0.88291475774874  0.38879687404896
1   1.90157387730684  1.50077755779315  -0.01266403320328





