%nproc=4
%Mem=
# TD=(NStates=1) B3LYP/6-31G(d,p)  

ABSSPCT

0 1
6   -0.23236199663703  1.35784049942520  0.04483585309959
6   1.03806559273550  0.89333186629196  -0.09489798711602
6   1.27389584924695  -0.43782002516181  0.09852039707141
6   0.28864584111861  -1.40761458651712  -0.04560029082430
6   -1.04395269720089  -0.89344208423173  -0.02038925635502
6   -1.30521786578384  0.47809192878834  0.01051640579847
1   -0.45465455392540  2.47426435629776  0.02424187662013
1   -2.29526222230957  0.85508917611709  -0.04706224634926
1   -1.95232416912309  -1.61529353531487  0.19020042471421
1   0.36663661400857  -2.47447630784794  -0.05570069632505
1   2.33301568876081  -0.75369475280288  0.05066222060444
1   1.81663128762210  1.64012384781282  0.00811703353397





