%nproc=
%Mem=
# TD=(NStates=1) B3LYP/6-31G(d,p)  

ABSSPCT

0 1
6   -0.27272747231367  1.37671135184689  -0.01249406659321
6   1.06892243202490  0.87351833652480  0.02047712081689
6   1.29603525100672  -0.43310995310381  0.00792519697837
6   0.26148212459599  -1.40809321950058  -0.05183253632235
6   -1.01284082228800  -0.91742783687995  -0.00832526387929
6   -1.30781987360743  0.49981700310067  0.03693582494373
1   -0.57231194656373  2.39228857555296  -0.11890067331367
1   -2.24059204883189  0.85272963764068  0.09944709547422
1   -1.91848049132799  -1.58618413758675  -0.09060648796523
1   0.32447789394480  -2.32248837595385  0.21109394218630
1   2.24860225712960  -0.86054139828946  0.22430288956443
1   1.80291276997015  1.63629105009794  -0.20472791427037





