%nproc=4
%Mem=
# TD=(NStates=1) B3LYP/6-31G(d,p)  

ABSSPCT

0 1
6   -0.31443046006863  1.36528799513993  0.01398246884943
6   1.08725788993493  0.90789865172545  -0.00176344893840
6   1.28836704660447  -0.48837863102382  0.05286276088717
6   0.25339593790651  -1.41592779968347  -0.03850558493401
6   -1.04333671674221  -0.89380795871893  0.00922712330952
6   -1.27184225163657  0.48935258476009  -0.01906273243166
1   -0.34535062387684  2.61858445024426  -0.06450065599801
1   -2.36588310623495  0.72389892541871  0.16106846776589
1   -1.94634168942460  -1.55491674069484  -0.14436799076196
1   0.49008039463884  -2.42885192038112  0.22639746179487
1   2.39809132463489  -0.69505563176996  -0.25198503281817
1   1.82265063924669  1.77114220563137  -0.11641467614504





