%nproc=
%Mem=
# TD=(NStates=1) B3LYP/6-31G(d,p)  

ABSSPCT

0 1
6   -0.19015284582386  1.37582841246537  -0.02817885408143
6   1.06568595106640  0.89315856059279  0.05084406142334
6   1.30645310684748  -0.46895853412353  -0.01899379024287
6   0.22078983153514  -1.36536423940642  -0.04064958332414
6   -1.03984905454917  -0.90183431064759  0.00801298171113
6   -1.33764360511567  0.44695899586673  0.03324099172961
1   -0.69101867210327  2.52937722564706  -0.22916618161600
1   -2.54062583421139  0.68780123629932  0.04357269723788
1   -1.87243605553785  -1.49747902714905  -0.06116483057515
1   0.50415794307990  -2.41942586100099  0.12723404793137
1   2.44355172473151  -0.72282637931165  0.11668703319532
1   1.87436357423044  1.64809241669324  -0.06633793011086





