%nproc=4
%Mem=
# TD=(NStates=1) B3LYP/6-31G(d,p)  

ABSSPCT

0 1
6   -0.29374580728892  1.32000665482634  0.01768223427051
6   1.01720514317859  0.90483517721885  -0.02203083448937
6   1.38585089227199  -0.48562811834928  0.02807793654220
6   0.24025005374426  -1.34032076681586  -0.03560664171884
6   -1.06025015851986  -0.86363224284624  0.02320793113048
6   -1.28577436145254  0.47814060824931  -0.02619891274575
1   -0.50849293568380  2.47231164963929  0.23495888909363
1   -2.34257860443613  0.82535763453757  -0.14208195802674
1   -1.98617788829723  -1.58305793554647  0.09083543069994
1   0.49163554605185  -2.47082981121108  0.17497737742582
1   2.44328398035351  -0.82526287995499  -0.08760703708987
1   1.85098180623519  1.43818128226695  -0.02049752888486





