%nproc=
%Mem=
# TD=(NStates=1) B3LYP/6-31G(d,p)  

ABSSPCT

0 1
6   -0.27783145200305  1.32833531531113  -0.02962272045952
6   1.11515047314496  0.86187603774129  0.00603027478718
6   1.33484277350983  -0.45300610466363  0.02064603669337
6   0.24912931871593  -1.36116504910663  0.01322396431378
6   -1.00718094749436  -0.90650314469385  0.00299530109949
6   -1.33374423577158  0.50215140230315  0.01436141380777
1   -0.56508722345505  2.46400334130805  0.08598670999070
1   -2.34568916327903  0.84933322899494  -0.01989684788717
1   -2.02213433079553  -1.55498926926287  -0.10071797695700
1   0.20363007027361  -2.42927638052782  -0.13276344841892
1   2.25078035098872  -0.88798322707138  -0.12702218863724
1   1.56473138229202  1.99312703708734  -0.05885787093016





