%nproc=4
%Mem=
# TD=(NStates=1) B3LYP/6-31G(d,p)  

ABSSPCT

0 1
6   -0.26510636678477  1.40644082945556  -0.00361545837413
6   1.08609945226797  0.93578108887938  0.03195109518998
6   1.31781411660977  -0.46625175395180  -0.03417658342832
6   0.21786149541532  -1.37831234253487  0.02032564280155
6   -1.03154485783869  -0.90001814483344  -0.00089759783748
6   -1.31623187104211  0.41711656772806  0.00652206079888
1   -0.36063055008738  2.47644567993088  0.07052669977615
1   -2.35444481934420  0.83350012306631  -0.27940259053816
1   -1.75989375720344  -1.88355080997170  0.10832977909597
1   0.22631974662118  -2.39430778500908  -0.05863344551297
1   2.12575064399717  -0.95449509370728  -0.03964618005782
1   1.96835997685650  1.69245276742377  -0.07985003515813





