%nproc=4
%Mem=
# TD=(NStates=1) B3LYP/6-31G(d,p)  

ABSSPCT

0 1
6   -0.24895686221284  1.33908712058203  0.03032031953414
6   1.07730874991033  0.89402590959577  -0.05657788002072
6   1.27667900060805  -0.46090711234588  0.04683577464895
6   0.26667378609884  -1.32100635677898  0.02205469808245
6   -1.03328720277870  -0.93892161088417  -0.00458071153925
6   -1.35601718809551  0.46692560384575  0.00538145709473
1   -0.19496046268945  2.46866776784764  -0.00218919643969
1   -2.27680682617113  0.91732752585796  0.11139768028582
1   -1.99858777885956  -1.55398576839022  -0.34723132133936
1   0.48753879819023  -2.41331161516902  -0.16768154167441
1   2.45675229484563  -0.81989391613573  0.05476708533940
1   1.79442903468223  1.68713863808562  -0.22901299934638





