%nproc=4
%Mem=
# TD=(NStates=1) B3LYP/6-31G(d,p)  

ABSSPCT

0 1
6   -0.24024516787268  1.38918691153867  0.00949508364826
6   1.12478091729427  0.98267698805182  0.01165045818469
6   1.33902748485263  -0.44619763429383  -0.01338553584926
6   0.22110473743561  -1.39206516162410  0.04723652034679
6   -1.14783765834443  -0.95612661779459  -0.00352650130699
6   -1.30816673436329  0.44102288048269  -0.00137776014125
1   -0.34376141533051  2.52004230898047  -0.04183491419013
1   -2.37020781915458  0.79347458177744  -0.07775804143930
1   -1.79170344146215  -1.87062667806244  -0.18473773961859
1   0.29568771792030  -2.53238082104313  -0.10560994791187
1   2.44668756259315  -0.82978283641951  -0.18487027662091
1   1.88208013270220  1.67578280572140  -0.10106433521587





