%nproc=4
%Mem=
# TD=(NStates=1) B3LYP/6-31G(d,p)  

ABSSPCT

0 1
6   -0.24856249405721  1.32063843033149  -0.10508068081153
6   1.08377567343351  0.88763304270285  0.00317716555879
6   1.35336879552583  -0.46328839233725  0.03777339757206
6   0.23102175231302  -1.34576633617967  -0.08585023332002
6   -1.04935705038155  -0.90632326631287  0.05670521261134
6   -1.33462621779419  0.49180871129984  0.04612029706913
1   -0.58170750677029  2.48213493018735  -0.03391835070158
1   -2.55653983001198  0.72823038889430  0.28056087437552
1   -1.97646612674015  -1.52360986337792  -0.00457498638833
1   0.52456936466922  -2.31894257716922  -0.26850966122281
1   2.31514500967109  -0.84265644593307  0.43540503190324
1   1.86755618213140  1.67693173922958  0.22739830712029





