%nproc=4
%Mem=
# TD=(NStates=1) B3LYP/6-31G(d,p)  

ABSSPCT

0 1
6   -0.25199512582946  1.33102479249302  0.00568587170244
6   1.08422154940342  0.91301629138243  0.07165850772891
6   1.25888688001642  -0.46893627820223  -0.09837690749001
6   0.24690289006059  -1.34444869605045  0.01740275461899
6   -1.03227243889734  -0.92888061036194  -0.01831976825836
6   -1.29806749476977  0.47258591714741  -0.01661654322001
1   -0.41269590962937  2.59967778945700  0.10266492586730
1   -2.30753724726899  0.94845445633567  -0.17372380923434
1   -1.83081162504222  -1.69664477280034  0.22072172250894
1   0.49828307737178  -2.39132705779480  0.33914874588798
1   2.30011403164756  -0.88776478351265  0.05691539138396
1   1.71585384036632  1.72190218240224  -0.05183078870007





