%nproc=
%Mem=
# TD=(NStates=1) B3LYP/6-31G(d,p)  

ABSSPCT

0 1
6   -0.25514670304478  1.36955153315754  0.02640368679735
6   1.04456580175169  0.90180114436903  -0.04554805220525
6   1.33459992243124  -0.47811345669328  0.00311227292900
6   0.25198588331999  -1.41656396098913  0.04489595668281
6   -1.01104432325018  -0.89800955892350  -0.00626075800142
6   -1.32302793908452  0.47804619982835  0.01519108483285
1   -0.60730716872913  2.65715185732750  -0.11963720582954
1   -2.51508394098948  0.82080345203962  -0.00576286415100
1   -1.83499117205710  -1.37347174521938  -0.32585194778513
1   0.34853217593303  -2.43308775061975  -0.04936644288264
1   2.34323878694374  -0.87961778958723  -0.12478913586511
1   1.80548909858516  1.70989972034321  0.11465630598654





