%nproc=
%Mem=
# TD=(NStates=1) B3LYP/6-31G(d,p)  

ABSSPCT

0 1
6   -0.26512020910905  1.39692240920926  0.04442419510298
6   1.06950785944321  0.86200447237629  0.01226114379964
6   1.34827098698917  -0.49357327158167  -0.05983400909780
6   0.25830044255104  -1.33177139793640  -0.01035899812047
6   -1.05038419172582  -0.91475273046305  0.02926678176592
6   -1.34609681285068  0.45258324602464  0.00687465309874
1   -0.40678762003968  2.50935077535232  -0.19871043283089
1   -2.37255337999802  0.90629648628933  -0.42118176977563
1   -1.91081296794240  -1.62519735173504  -0.00344471024860
1   0.41857246260328  -2.37364991232558  0.17771882478176
1   2.36397941170133  -0.79818290626152  0.00104096014119
1   1.76328977043713  1.71726670299650  0.11646945815571





