%nproc=4
%Mem=
# TD=(NStates=1) B3LYP/6-31G(d,p)  

ABSSPCT

0 1
6   -0.28951455607191  1.34171762705851  0.00384733798482
6   1.06530351407199  0.85977061157524  -0.05589258303283
6   1.35390468096646  -0.40897676452559  0.03946039608943
6   0.26299687629867  -1.38750088000640  0.02223045519756
6   -1.04052269939948  -0.87333001941067  0.00805083610012
6   -1.31987370932677  0.49038997731710  -0.01396757374965
1   -0.72161043782193  2.42244325716907  0.20934676690915
1   -2.36143078378627  0.76283074468098  0.02754214537628
1   -2.00651768566597  -1.47725777288858  -0.01901535886437
1   0.33803037218011  -2.49039956709248  -0.33003290180809
1   2.37080692991033  -0.93915214924617  0.08776344271389
1   1.98872312291180  1.48533339767097  -0.02314812436489





