%nproc=4
%Mem=
# TD=(NStates=1) B3LYP/6-31G(d,p)  

ABSSPCT

0 1
6   -0.26681607588410  1.36110092837025  0.00064564563546
6   1.06641300165167  0.91654246246195  -0.00095240459389
6   1.30625805273123  -0.51218671281775  -0.02920687681226
6   0.26275437581004  -1.34230122624552  0.01167953347271
6   -1.07253064051766  -0.89243647893935  0.01421575256421
6   -1.29411237859261  0.45338499662688  0.00320100086302
1   -0.57387355730095  2.54247282417686  -0.13299244461941
1   -2.21954550883807  0.83152362338553  -0.02257088421573
1   -2.03090207956157  -1.70838330419420  0.00172661873223
1   0.48843908756319  -2.34718220294636  -0.17058638549015
1   2.49523656374665  -0.93960324257953  0.15164589131105
1   1.87001873909879  1.82186695375272  0.12903861213741





