%nproc=4
%Mem=
# TD=(NStates=1) B3LYP/6-31G(d,p)  

ABSSPCT

0 1
6   -0.24651980904589  1.36317012859727  -0.02067141057399
6   1.02530515918712  0.91562300802254  0.05316986038799
6   1.33331343445320  -0.47253644134175  -0.00083273779086
6   0.26196117302506  -1.38037672859848  -0.06837071627624
6   -1.03118522119478  -0.90647529326391  0.08968249855062
6   -1.35840592519347  0.47534424312676  -0.06538741320777
1   -0.19432115680445  2.43940336527572  -0.02163648708317
1   -2.32997710382517  0.92575532185652  -0.07085204682021
1   -1.92704022788364  -1.64621860815962  0.24914838945431
1   0.46099069797489  -2.46895334588621  -0.03056496671817
1   2.30325691329393  -0.85294104219954  -0.17078364398523
1   1.87787698170916  1.68398653860316  0.17076715009735





