%nproc=
%Mem=
# TD=(NStates=1) B3LYP/6-31G(d,p)  

ABSSPCT

0 1
6   -0.24964695297681  1.34158087184116  -0.00044648277195
6   1.01863141059850  0.88768337334616  -0.01261766796844
6   1.35288681803231  -0.46997518686180  0.01873416523956
6   0.30969131086719  -1.37789123075195  -0.03550012605502
6   -1.04545262480958  -0.86283425585371  0.01358822391859
6   -1.33998421274220  0.47501193021758  0.01076637883754
1   -0.67506987553507  2.39794801943083  -0.01056894173737
1   -2.34515692286923  0.96536269431357  0.02244581886294
1   -1.97364102803379  -1.46639790408681  -0.07362287160330
1   0.31419958471358  -2.49455113349067  0.08947422014453
1   2.28559777446396  -0.80572623092329  0.10050747527978
1   1.84869347023849  1.47929627704384  -0.03348871333754





