%nproc=
%Mem=
# TD=(NStates=1) B3LYP/6-31G(d,p)  

ABSSPCT

0 1
6   -0.28280175679211  1.36904163813604  0.00463995276268
6   1.11270546106537  0.93318525117530  -0.01166359636210
6   1.35217468542563  -0.49692972659244  -0.01770686776845
6   0.22948412975830  -1.32557267455773  0.02105623575390
6   -1.10202223445286  -0.89990332746195  0.02215781916544
6   -1.31603867372861  0.44705075924855  -0.00568423351008
1   -0.70914131994412  2.38011622674022  -0.04000541765371
1   -2.21986448035720  0.87483721879593  -0.01545211702927
1   -1.85526327711916  -1.84098896640907  -0.12095117366504
1   0.49025462152540  -2.38687848906676  -0.18864615372621
1   2.38366879912785  -0.96831483009406  0.09852814301886
1   1.95677551601391  1.58833907170807  0.05217347891116





