%nproc=4
%Mem=
# TD=(NStates=1) B3LYP/6-31G(d,p)  

ABSSPCT

0 1
6   -0.27508286146860  1.34322693852512  0.02156044107020
6   1.05063615600994  0.85534653908087  -0.03209937523903
6   1.26765442321802  -0.44606834614341  0.01657889178006
6   0.27291287918266  -1.26653222136044  0.01039031671611
6   -1.09791482523200  -0.90094451584666  0.00042963381922
6   -1.23897540539048  0.43238597051589  -0.03983562605439
1   -0.52542544191496  2.46120978595807  0.14354662250494
1   -2.18417240950616  0.69335417045360  0.23266295634047
1   -1.91083721527438  -1.55301404848080  -0.07541616937476
1   0.54650879306719  -2.41902118135576  -0.00365993556079
1   2.31039397350553  -0.90717347722130  0.08158417755233
1   2.00151039806498  1.51942725401650  -0.08048015511041





