%nproc=
%Mem=
# TD=(NStates=1) B3LYP/6-31G(d,p)  

ABSSPCT

0 1
6   -0.22056362037293  1.44434552226888  0.03851356942008
6   1.03262136614520  0.89638641098586  0.00556416639959
6   1.25293625199679  -0.48524251882508  -0.09143579969263
6   0.28207566635186  -1.35543478184432  0.08023038173208
6   -1.07136211491484  -0.94459941690329  0.00532424528081
6   -1.29813169042304  0.44640252343348  -0.05335558579493
1   -0.50457060149883  2.46500625988786  0.13085574447943
1   -2.30339035889740  0.78329671030280  -0.07651395203933
1   -1.75961934265727  -1.72127740457272  -0.06181087455587
1   0.41860563109963  -2.36426035078306  0.04139223670349
1   2.39286322107099  -0.83008723193022  -0.01572636290583
1   2.03069473269655  1.56877012405247  0.11438039465908





