%nproc=4
%Mem=
# TD=(NStates=1) B3LYP/6-31G(d,p)  

ABSSPCT

0 1
6   -0.22323555868169  1.36855720965792  0.00800112021256
6   0.99961133600211  0.91813876242783  0.01021020889729
6   1.28529815673716  -0.44689302904388  -0.07742824637730
6   0.27137382277097  -1.39960946359268  0.04504562008121
6   -1.05188401674555  -0.91070511152622  0.03860676146616
6   -1.28789850399454  0.45153569232770  -0.03349496342058
1   -0.41054644065051  2.54818809869573  -0.00372086310826
1   -2.30666777910254  0.85138860322018  -0.12952518763906
1   -1.92142479403518  -1.57923309372193  0.03020717818970
1   0.45671516180234  -2.34931502080960  -0.22179223616973
1   2.27295126914819  -0.81893861948877  0.12584091399075
1   2.02929199712940  1.51817866206660  0.22972332476714





