%nproc=
%Mem=
# TD=(NStates=1) B3LYP/6-31G(d,p)  

ABSSPCT

0 1
6   -0.26226321411801  1.36531333851511  -0.00855896645103
6   1.06987103279079  0.89057102562191  -0.00312845152946
6   1.35544657465363  -0.44536070117151  -0.01980847995925
6   0.26997432281927  -1.35200146868599  0.01649592337559
6   -1.09605822373275  -0.91292673489259  0.03041233291118
6   -1.35761306882519  0.46038972043316  0.01822641516995
1   -0.28482458438285  2.34080946368167  -0.16722218189161
1   -2.37149404386948  0.94762680560866  -0.05593499604521
1   -1.82384350325825  -1.66299397759989  -0.27151818996309
1   0.37833559425941  -2.45726841543695  -0.11144847872022
1   2.44601441616002  -0.91696799534439  -0.03378667530471
1   1.88901588456819  1.68509647593228  0.15732292732816





