%nproc=4
%Mem=
# TD=(NStates=1) B3LYP/6-31G(d,p)  

ABSSPCT

0 1
6   -0.27087029835655  1.36918018503546  -0.01183976369294
6   1.09570882422421  0.93123308344837  -0.01345043197792
6   1.27758720189401  -0.48257127858270  0.09425256689475
6   0.28434653366067  -1.37356553038132  -0.07413756517185
6   -1.06788730169169  -0.90896245218208  -0.02023843385329
6   -1.34542290932405  0.46192308178012  0.05636290165966
1   -0.25129920274162  2.54264768939046  -0.17713160205827
1   -2.37821051771833  0.86332096807910  0.13579251437380
1   -1.78475720272791  -1.73300740405757  -0.14675031337855
1   0.50153255604000  -2.42056239949296  0.14272493161557
1   2.30020811002414  -0.90613337331072  -0.01634157557566
1   1.93688121461799  1.65159345619320  -0.27164046029559





