%nproc=4
%Mem=
# TD=(NStates=1) B3LYP/6-31G(d,p)  

ABSSPCT

0 1
6   -0.20820158321691  1.43744600774657  -0.03148009055777
6   1.03365984816627  0.89717443289149  0.00672687140740
6   1.31936985106081  -0.42114793100763  0.01711857452910
6   0.24208029079257  -1.43740883555405  0.00885528135694
6   -1.09589355954924  -0.93660857567222  -0.02493815931849
6   -1.30397525240665  0.46161743754327  0.03204179114782
1   -0.45055414896291  2.42423010912446  0.01687576731316
1   -2.30704805634897  0.77620854847112  0.03940995927365
1   -1.85086125059541  -1.57237887490666  -0.01823882938294
1   0.60397311348885  -2.49978550660303  -0.03107692554790
1   2.25743141422560  -0.81841678304637  -0.07978029499005
1   1.89430476648550  1.70249446890401  -0.00762301610859





