%nproc=4
%Mem=
# TD=(NStates=1) B3LYP/6-31G(d,p)  

ABSSPCT

0 1
6   -0.21912184677411  1.37187403511193  0.00967469871486
6   1.03060803022175  0.94759204734888  -0.04031706610373
6   1.28472357260193  -0.49350362988238  0.01539356474414
6   0.31666891499603  -1.40070868804465  0.06343296449117
6   -1.08201309429138  -0.86575470786914  -0.06905902752101
6   -1.32441021606940  0.45945075010912  0.02840336377422
1   -0.36885086152649  2.46297241642611  0.22289902187274
1   -2.28814865261000  0.64456257298463  -0.03160973061896
1   -1.81317547091706  -1.60952693802273  -0.03191298764538
1   0.40989454724896  -2.41549507977523  -0.04118668608842
1   2.20873048862466  -0.94991407607371  -0.03685213436647
1   1.77700147515780  1.68120214845991  -0.13102394325840





