%nproc=
%Mem=
# TD=(NStates=1) B3LYP/6-31G(d,p)  

ABSSPCT

0 1
6   -0.23028526604944  1.36418669288896  0.02803182901970
6   1.02113574688273  0.89392995241505  -0.01462854174593
6   1.29476892178121  -0.46784384338237  0.01734764063600
6   0.23752808941977  -1.36295956157767  0.07702586971718
6   -1.06044731304648  -0.90752156741849  -0.11618021923484
6   -1.26218139266411  0.45764133502582  0.04588172095054
1   -0.49808017673744  2.29009025036989  -0.05986891545626
1   -2.27920663969644  0.84154424215542  0.00314199922638
1   -1.80490170839004  -1.60044416617508  -0.02477514564000
1   0.48330435058297  -2.24174812342636  0.11891702326967
1   2.25500618688119  -0.68712191888434  -0.30317588110134
1   1.84778824492626  1.63082060961765  -0.17952769728695





