%nproc=4
%Mem=
# TD=(NStates=1) B3LYP/6-31G(d,p)  

ABSSPCT

0 1
6   -0.24981737193458  1.33727203188584  -0.01470034292361
6   1.05989809614489  0.92307414188971  -0.04889285371192
6   1.30777836802732  -0.45639478330888  -0.01926975865401
6   0.25364247543979  -1.36952103434305  0.05397096664914
6   -1.09109540018972  -0.92088948200547  -0.01822618756474
6   -1.27125222802035  0.47989559126169  0.04805903650483
1   -0.45234466105976  2.39373720643596  0.15384447141843
1   -2.28308689835140  0.78991721660136  -0.15891778138800
1   -1.92243534568746  -1.56702121636825  -0.14752286020580
1   0.42412559707248  -2.39468335033875  -0.14320514145273
1   2.40277878195910  -0.82658248730002  0.11761149628833
1   1.74844648861367  1.72878823324467  0.19076868625714





