%nproc=
%Mem=
# TD=(NStates=1) B3LYP/6-31G(d,p)  

ABSSPCT

0 1
6   -0.27966372156058  1.38439438987200  -0.01016874017201
6   1.03358349986061  0.84041092007915  0.06413945479446
6   1.31682114114737  -0.47029478181841  -0.09054523823947
6   0.30449979001478  -1.32268995004181  0.01169596864046
6   -1.04592410675682  -0.89989759733432  0.02273436919411
6   -1.38071641972360  0.48977268934028  -0.05139095776905
1   -0.22431590232692  2.48824473811898  0.00863434365336
1   -2.25366044232516  0.87904389468491  0.09426958678077
1   -1.80075046016190  -1.85298102926721  0.13181308314337
1   0.48849352719860  -2.39374858798545  0.19965100124142
1   2.38686847554449  -0.74671201835204  0.01858411457697
1   2.03276714825379  1.27655643984682  0.19575758131216





