%nproc=4
%Mem=
# TD=(NStates=1) B3LYP/6-31G(d,p)  

ABSSPCT

0 1
6   -0.28075610496001  1.41704502049360  0.00137185676370
6   1.10349763464756  0.91698018370827  0.03828564263964
6   1.33883964703109  -0.43915415209143  -0.05763553375670
6   0.20856822563281  -1.39290146816773  0.04604813999232
6   -1.08159286125539  -0.97753092213357  0.02847149791313
6   -1.26043362985143  0.47782899666640  -0.08799653638727
1   -0.60596831154143  2.48854528188408  0.27063690786506
1   -2.32311210029151  0.71644897026192  -0.11312734573096
1   -1.91721584454667  -1.53435115846953  0.31892883255374
1   0.30670954558523  -2.48767152904790  -0.04867733024698
1   2.38907988870387  -0.84918463467972  -0.28844941135878
1   1.81225628831223  1.67422852904542  0.23176724430481





