%nproc=4
%Mem=
# TD=(NStates=1) B3LYP/6-31G(d,p)  

ABSSPCT

0 1
6   -0.23404406433956  1.32772984438049  -0.07289359796563
6   1.09356872251187  0.90229649150412  0.06184303342162
6   1.34429553528990  -0.45701618917342  0.04405953894389
6   0.23292534060403  -1.30915548071969  -0.11215314639098
6   -1.05589992146173  -0.89448161184401  0.07874236870659
6   -1.34959902795536  0.42883297744782  0.00805575044485
1   -0.59629165345234  2.45802561524312  -0.16708614874471
1   -2.28343298768357  0.87795602800222  0.05033702885993
1   -1.95223903216513  -1.60580698023937  0.08110411488853
1   0.35599009065566  -2.53162538950393  -0.07829956488937
1   2.22779004272489  -0.80226579122940  -0.01452325678070
1   1.86048953990700  1.63108394003057  0.02651655758930





