%nproc=4
%Mem=
# TD=(NStates=1) B3LYP/6-31G(d,p)  

ABSSPCT

0 1
6   -0.31602380390226  1.38608080944953  -0.01784544417836
6   1.07920025334948  0.90118623553743  -0.07185569745004
6   1.23815518709310  -0.50663797656233  0.03798761272599
6   0.25834182495667  -1.39085837482711  -0.00172366723155
6   -0.96066976817261  -0.88971997094162  -0.04128110122259
6   -1.29050826553297  0.49154994517035  0.08864452666814
1   -0.51957512752090  2.33959534027251  0.04157277030126
1   -2.29240814494726  0.68150878795126  0.13826773477910
1   -1.94519555653152  -1.47084407839366  -0.36473692561801
1   0.34755516705210  -2.27972900596478  0.05300630704800
1   2.43775856167468  -0.69988344687540  0.34706776373011
1   1.89356595450297  1.52816777029401  -0.05897573391901





