%nproc=4
%Mem=
# TD=(NStates=1) B3LYP/6-31G(d,p)  

ABSSPCT

0 1
6   -0.24495916541013  1.40022164010912  0.00874478425234
6   1.05862811775448  0.94469854392371  -0.04994121647538
6   1.30915462696277  -0.44740911471381  0.05627526390604
6   0.23134368073972  -1.43014824072075  -0.02819824136561
6   -1.00491675005642  -0.91613212139643  -0.00252366212577
6   -1.32314365625157  0.46896682854241  0.00557402460037
1   -0.42755056146618  2.42934881046004  0.02216209363240
1   -2.24405809670148  0.80240542928744  0.09836570196761
1   -1.93944729365610  -1.66815302887370  0.01964040236883
1   0.31129958663847  -2.47301479461644  -0.06804221729966
1   2.18051376817776  -1.01964637991368  0.09739494761306
1   1.79786088144968  1.75109613321628  -0.00189448178544





