%nproc=4
%Mem=
# TD=(NStates=1) B3LYP/6-31G(d,p)  

ABSSPCT

0 1
6   -0.26271613116915  1.31389218768378  0.09248539126801
6   1.01201452130252  0.88673584715072  -0.02501393929204
6   1.35576393279650  -0.53434060852320  -0.08682756880147
6   0.25399597915060  -1.34512403743481  0.10983485315197
6   -1.01121316558714  -0.86934368747159  -0.00544986587393
6   -1.36000469684567  0.53247692229181  -0.08578535041991
1   -0.37651835401904  2.43356153946977  0.24181286414238
1   -2.33509116962285  0.92155608905679  -0.02316355461473
1   -1.71748163309821  -1.70069421788587  -0.23930470171053
1   0.39266732770455  -2.48948355318880  0.08440798046523
1   2.60194214885896  -0.77142534440321  0.02327760012186
1   1.61099946607518  1.80815431529195  -0.15867288632542





