%nproc=
%Mem=
# TD=(NStates=1) B3LYP/6-31G(d,p)  

ABSSPCT

0 1
6   -0.27818687279035  1.45381017228887  0.07830244283285
6   1.03638951063051  0.89557087989643  -0.02484732901404
6   1.28498013002690  -0.45800327655306  0.04616461771103
6   0.28414370452643  -1.44648095869263  -0.02283389545030
6   -1.03943519123668  -0.90087648976846  -0.02646695867980
6   -1.32623289435152  0.49321640144884  -0.03360150830173
1   -0.28321652369459  2.35854164205254  -0.05106986816328
1   -2.38630160407799  0.71779324893168  0.00444745084850
1   -1.76426024370804  -1.59875052752824  0.09052620480448
1   0.68637745975852  -2.46454367960516  0.16320228560610
1   2.16651583101826  -0.94293489330406  -0.05798029447960
1   1.98177969733431  1.50843561598478  -0.35486421139873





