%nproc=4
%Mem=
# TD=(NStates=1) B3LYP/6-31G(d,p)  

ABSSPCT

0 1
6   -0.20146626310073  1.41934222729573  0.03963262695230
6   1.05121858101899  0.91401418721770  -0.02810952416983
6   1.27889720757889  -0.48737541084941  -0.00938154307487
6   0.24254568486684  -1.41111852055721  0.05704040518094
6   -1.01562785834266  -0.91123446447359  -0.04939085084340
6   -1.33517753917646  0.47716271585088  0.00138509222858
1   -0.50034232703269  2.41302855335160  -0.00907711672288
1   -2.30350236255870  0.73268941376118  -0.11188414374540
1   -1.88126989382743  -1.69089101099237  0.06365689487894
1   0.41323155572921  -2.48115358087040  0.03614971761186
1   2.34239039050342  -0.71798285539995  -0.20006581305078
1   1.70026472946052  1.77550465694803  0.08493379173387





