%nproc=
%Mem=
# TD=(NStates=1) B3LYP/6-31G(d,p)  

ABSSPCT

0 1
6   -0.24737384728337  1.39279057841549  -0.00901218946063
6   1.02206149558426  0.84930195684718  0.05951518288515
6   1.32361031607912  -0.49070722476996  -0.08359274606526
6   0.29733432168012  -1.37955138022414  0.06339315616334
6   -1.01712951197794  -0.92619830652935  -0.01348469919041
6   -1.38195181866287  0.55390555256779  -0.00499271938585
1   -0.38288444860612  2.47842272153136  -0.04795530109537
1   -2.45499199054946  0.73013951091006  -0.11183272002706
1   -1.81501035092495  -1.50291195862463  0.01859362778412
1   0.65092934800626  -2.36805128630939  -0.01881534722817
1   2.33170861043760  -0.78683651090274  -0.10040808948336
1   1.74731200885616  1.47430522615398  0.04316917110669





