%nproc=4
%Mem=
# TD=(NStates=1) B3LYP/6-31G(d,p)  

ABSSPCT

0 1
6   -0.22639122054123  1.38298485388759  -0.03878400216895
6   1.09789925161086  0.91124587724622  0.01607443207039
6   1.32067173053760  -0.40692192690239  0.02645495207901
6   0.25914834954982  -1.41987560264591  -0.07442787183033
6   -1.11664954652962  -0.93031524249312  0.06014176882153
6   -1.36638168956262  0.47113758054389  0.01291592226575
1   -0.49577094334545  2.51556152078579  -0.09123836685323
1   -2.21919320345047  0.80547741123839  -0.10286689293169
1   -1.76483047811712  -1.68789104665446  0.11783902171469
1   0.46616194952918  -2.50513072025195  -0.16750145938060
1   2.41937809537858  -0.78418959214103  0.11689846200108
1   2.00180191175658  1.50305192936697  0.09271405375041





