%nproc=4
%Mem=
# TD=(NStates=1) B3LYP/6-31G(d,p)  

ABSSPCT

0 1
6   -0.27082529403150  1.29361521530089  -0.04063967727761
6   1.02757633613234  0.96932956559398  -0.01993795694981
6   1.28353182901658  -0.53078848566651  0.05018959272443
6   0.26143965312079  -1.37118668580520  0.00526230833893
6   -1.05652488404525  -0.86842231417747  -0.00250837827257
6   -1.27722310230545  0.48078034632420  0.03160679713022
1   -0.52692617299061  2.33543056062723  0.14192903560375
1   -2.32661957181088  0.93536099546032  0.14030501263482
1   -1.69954362461040  -1.57267048674614  -0.29588265061934
1   0.58270303571475  -2.28499524249293  -0.08824577281719
1   2.32970351981836  -0.75177363625436  -0.05854117505121
1   2.01754252884229  1.56348512426026  -0.11316834582061





