%nproc=4
%Mem=
# TD=(NStates=1) B3LYP/6-31G(d,p)  

ABSSPCT

0 1
6   -0.21239987082579  1.36836900490156  0.03651856422483
6   1.06659629137990  0.92387310780153  0.02150883251997
6   1.37078553003670  -0.43296296089757  -0.01817985492493
6   0.22050546990219  -1.39569528935931  0.01016129695974
6   -1.05125021976895  -0.93720736580360  -0.00245062968373
6   -1.37707192375532  0.47000640501828  0.01153128177400
1   -0.51544700467593  2.44529283973797  -0.16900780171721
1   -2.45598308301892  0.92806532206681  -0.31665293720257
1   -1.88959149742527  -1.58748685554004  -0.07409353027205
1   0.39972357108689  -2.42172873257931  0.11348408852892
1   2.41331061674704  -1.02345785415029  -0.22667993302748
1   1.85722517736772  1.72231158959771  -0.12023624568896





