%nproc=
%Mem=
# TD=(NStates=1) B3LYP/6-31G(d,p)  

ABSSPCT

0 1
6   -0.26985256810290  1.34056134161077  -0.04058911068351
6   1.09088430854187  0.91544338490675  0.04377826099864
6   1.33071665090743  -0.45886289270203  -0.00920845529509
6   0.22445836537211  -1.40767758190711  -0.00934102325445
6   -1.01996207127828  -0.90238520054214  0.09418095576387
6   -1.33937439585490  0.51219962159332  -0.03451953790225
1   -0.61018363740079  2.20139274882016  -0.08125872339533
1   -2.40150360082419  0.85331456494784  -0.06816755996920
1   -1.80396640416563  -1.50808356134742  -0.11434877874424
1   0.43990497037874  -2.44996014440839  -0.37428397779861
1   2.22982711332716  -0.87394443925249  -0.15451982975668
1   1.89684207266941  1.82324915312041  0.12167372320270





