%nproc=4
%Mem=
# TD=(NStates=1) B3LYP/6-31G(d,p)  

ABSSPCT

0 1
6   -0.30009503348917  1.36079623264021  -0.05303495324240
6   1.05155472672289  0.91023012884786  0.09244747255406
6   1.35154341205611  -0.45709259028019  -0.03444815668249
6   0.24219521551659  -1.35902595704692  -0.02161760661930
6   -1.04161847453564  -0.89954738260481  0.04537558498903
6   -1.32038719239542  0.44351891890791  -0.00198539634754
1   -0.35423017057220  2.67754297432212  -0.08597232287098
1   -2.33048965265762  0.83849499773054  -0.28592281363707
1   -2.08068588860473  -1.47592153288331  0.23517772453695
1   0.56611508729775  -2.46106143746672  -0.10928198135658
1   2.45267185371200  -1.00353454320265  -0.25392855919967
1   1.97817599713421  1.45507539518106  0.11164279765031





