%nproc=4
%Mem=
# TD=(NStates=1) B3LYP/6-31G(d,p)  

ABSSPCT

0 1
6   -0.26614829307203  1.38575236933749  0.03045708131613
6   1.10234219775307  0.95597527759661  0.03329600453617
6   1.36063431226365  -0.41939675382041  -0.02601608801260
6   0.25778271418708  -1.41862605084785  -0.04922062839554
6   -1.14443916566837  -0.90684091221272  0.05647046679334
6   -1.31229489688316  0.43873125677107  -0.05897483001711
1   -0.33627475034462  2.51112165064543  -0.06341167734167
1   -2.27525928211044  0.75310257265332  -0.09888510752932
1   -1.99386188514989  -1.69107658608115  0.15202804479512
1   0.44431141071198  -2.55804784006601  0.15652151215227
1   2.31473492557684  -1.03321919703067  -0.00673874980008
1   1.85504101338005  1.66856992785911  0.00492089247316





