%nproc=
%Mem=
# TD=(NStates=1) B3LYP/6-31G(d,p)  

ABSSPCT

0 1
6   -0.23535923010078  1.45693581051136  -0.01470101624972
6   1.07398905447072  0.88691983744957  0.04286149471413
6   1.27378885081526  -0.42530008010709  -0.03063492262896
6   0.26697862045703  -1.36935485875385  0.00337197165986
6   -1.09721012593667  -0.95068149309596  0.01103664234290
6   -1.28483642371596  0.43152504447209  -0.02428521821460
1   -0.59974388114016  2.38387524589182  -0.02415401807636
1   -2.41943242913588  0.76597719110397  0.24509042918888
1   -1.86171194170098  -1.63051809504707  -0.05285167801700
1   0.52027075344548  -2.35327614108846  -0.10285186516941
1   2.34493097817775  -1.02598855847527  0.24877964351797
1   2.02139654602116  1.49039008620336  -0.21803641172993





