%nproc=
%Mem=
# TD=(NStates=1) B3LYP/6-31G(d,p)  

ABSSPCT

0 1
6   -0.23498105627982  1.39302078888557  0.00198667336484
6   1.08504813475436  0.92794941999691  0.02612286493948
6   1.29814526027252  -0.46358193069182  -0.01584182434499
6   0.28700747779657  -1.33404909886694  -0.02813168420868
6   -1.10904293895618  -0.94071787786482  -0.01726916835440
6   -1.31892846272264  0.40938611932691  -0.04788601807971
1   -0.52602267507059  2.47073119504127  0.12867009299541
1   -2.23921275640278  0.92263032723986  0.24335587538110
1   -1.96880654022124  -1.66626306019314  0.31437101389069
1   0.24062409344150  -2.42522654077637  0.32174994436105
1   2.40497652015859  -0.77975779721693  0.04637782103473
1   2.02215038316578  1.50983390037296  0.03765607982848





