%nproc=
%Mem=
# TD=(NStates=1) B3LYP/6-31G(d,p)  

ABSSPCT

0 1
6   -0.26538903241158  1.37839293572744  0.02464036653115
6   1.07096230461601  0.88479376030514  0.04772927661155
6   1.29892163362897  -0.47341331195045  -0.04534806238057
6   0.21627514858387  -1.35719740298563  -0.02686467288029
6   -1.02416987236864  -0.89696300596799  0.09270804015600
6   -1.28017259773264  0.44397418412431  -0.08024961202278
1   -0.50421110927808  2.47186943146960  -0.05065077745288
1   -2.40777508293498  0.79762264053557  -0.28473580310698
1   -1.99643740531308  -1.56747423435036  0.21629675809658
1   0.46243192393469  -2.45458297317776  -0.13809742337776
1   2.42365628630247  -0.69469004757615  -0.08798146484424
1   1.83313940108661  1.70908448649332  0.08507576084372





