%nproc=4
%Mem=
# TD=(NStates=1) B3LYP/6-31G(d,p)  

ABSSPCT

0 1
6   -0.24881537661894  1.41645626145818  -0.01084585033826
6   1.05653300362997  0.92389994575614  -0.03779947143789
6   1.33123959763292  -0.48332134626570  0.04460432637876
6   0.23293777632026  -1.38825642599476  -0.02580255084739
6   -1.06627158929415  -0.91218001790451  0.00142585638201
6   -1.30342585298102  0.45032699962333  0.05419404022487
1   -0.47595391821254  2.44309712026255  -0.10423546517019
1   -2.36290156901479  0.73222022297503  -0.17289789589332
1   -1.88267174285976  -1.56362117595107  0.00397418956758
1   0.46838328933815  -2.41260264287973  -0.17236557898122
1   2.47179989175086  -0.82910016324992  0.05282160113922
1   1.75751772125652  1.57627455521607  0.08799687324662





