%nproc=4
%Mem=
# TD=(NStates=1) B3LYP/6-31G(d,p)  

ABSSPCT

0 1
6   -0.28484323507859  1.31683759655795  0.00957829554712
6   1.10098989793948  0.85928835692699  -0.01981707968636
6   1.38071774832793  -0.44384628213924  0.03141223729074
6   0.28867214933041  -1.32909604309946  0.02310206321344
6   -1.09381197314326  -0.91068786404019  -0.04312603480222
6   -1.39695743394033  0.50217968270946  0.01036826825617
1   -0.30734646152294  2.40050446746227  -0.03224437467814
1   -2.49798277221804  0.74907791225137  0.06237940541383
1   -2.03422723461210  -1.42065084384752  0.08223651908652
1   0.49745329269054  -2.41790059640530  -0.11215454133885
1   2.44507409263991  -0.91529868469467  -0.08252098015844
1   1.97129700978707  1.73435119694196  -0.05598389334745





