%nproc=4
%Mem=
# TD=(NStates=1) B3LYP/6-31G(d,p)  

ABSSPCT

0 1
6   -0.29943442055332  1.37553343305957  0.03987478728946
6   1.03979213204195  0.86783354591484  -0.03677874328987
6   1.31187661365450  -0.47652973384227  0.02712036578283
6   0.18474158759128  -1.35916236909562  0.01043921858930
6   -0.97025579156611  -0.90218742844784  0.02064744273131
6   -1.25914854436818  0.49065750730554  -0.02419627288452
1   -0.53460407866719  2.43872819307539  0.20785274707008
1   -2.46712465799829  0.84488903189560  -0.36742352751428
1   -1.79189708083618  -1.57371866657327  0.13674751604575
1   0.51095391863235  -2.49830811995891  -0.27344147753873
1   2.34898916155291  -0.85779556816904  -0.03247390715255
1   1.80319780504997  1.71113737647388  -0.16287750643566





