%nproc=4
%Mem=
# TD=(NStates=1) B3LYP/6-31G(d,p)  

ABSSPCT

0 1
6   -0.25183301902732  1.37626695846458  0.02257294099404
6   1.05045469383071  0.88568618691363  0.03247965840710
6   1.31816950570790  -0.44609725127377  -0.01564902719404
6   0.26199221915216  -1.40978896819613  0.00804972283787
6   -1.02747998592824  -0.86841903113548  -0.01169373659502
6   -1.35558400685785  0.46264595051185  -0.05157774006060
1   -0.38497323442371  2.30663197931659  0.06165771097405
1   -2.33805796951133  0.87894670848317  0.10471289370834
1   -1.78037965500976  -1.59025401739271  0.10520035165053
1   0.36031470764509  -2.44658881578665  0.22463909348893
1   2.32272230899212  -0.67729930847182  -0.19125554676166
1   1.85898175985003  1.50056612648486  -0.10449347032573





