%nproc=4
%Mem=
# TD=(NStates=1) B3LYP/6-31G(d,p)  

ABSSPCT

0 1
6   -0.21545509359042  1.34980267324210  -0.03452917833377
6   1.07001819989589  0.89552637092863  -0.01848883721829
6   1.29536379223238  -0.40449436468767  -0.05838655815063
6   0.24420577254134  -1.39625509746022  0.01352258761977
6   -1.04596611156813  -0.91815382104290  0.02058908858988
6   -1.35738418633868  0.46415162717558  0.02800902103648
1   -0.41941404904040  2.50069956155026  0.18083884680015
1   -2.26157263820188  0.89971056615160  -0.02557152681210
1   -1.80407630153741  -1.71343366285637  -0.21996020310029
1   0.46042992992898  -2.36156916492175  0.19632207197101
1   2.21233112415339  -0.83150732966648  0.19929563007950
1   1.96234658061809  1.55829096852098  0.34791585249351





