%nproc=
%Mem=
# TD=(NStates=1) B3LYP/6-31G(d,p)  

ABSSPCT

0 1
6   -0.29636129308116  1.40589071197578  -0.04428786868702
6   1.03490086926508  0.88744309573670  0.01674928703473
6   1.38797554685146  -0.47334770770558  0.02401431868061
6   0.25775876833985  -1.40389509950692  -0.01539079981581
6   -1.07755435451923  -0.86336114996159  0.00804486940982
6   -1.33769694255681  0.45736621682247  0.00752829568243
1   -0.25537631174925  2.46144442157041  -0.10439107919278
1   -2.38384932382023  0.58182593909214  0.11960655066801
1   -1.82405301977797  -1.49056510533058  0.10206222253130
1   0.48581566119745  -2.35799235071898  -0.12777756896017
1   2.32002854786336  -0.86831930009113  -0.15606108045427
1   2.00136402931350  1.55568596305316  0.21337838603701





