%nproc=4
%Mem=
# TD=(NStates=1) B3LYP/6-31G(d,p)  

ABSSPCT

0 1
6   -0.24054461882991  1.35887791685619  0.00889233377771
6   1.09105519222344  0.91406929873038  -0.01082968191378
6   1.29565075619204  -0.45492121411183  0.00610264487721
6   0.24664299271689  -1.37965090314956  0.00350008276174
6   -1.06617519999430  -0.90628886966615  -0.01622361781267
6   -1.30427616663234  0.43388225227688  -0.00171778140799
1   -0.64076713385621  2.46460839143301  -0.02622227217497
1   -2.26576557616569  0.93546574005678  0.00048126048911
1   -2.04959294621513  -1.48378528225866  0.15786794090012
1   0.49466329502698  -2.39543357976514  -0.07184847856268
1   2.45647319788911  -0.71540148553746  0.03150983093441
1   1.79790337699991  1.60527185222219  0.04357293533133





