%nproc=4
%Mem=
# TD=(NStates=1) B3LYP/6-31G(d,p)  

ABSSPCT

0 1
6   -0.29930610068801  1.33374862689663  -0.03770003506850
6   1.10850514158278  0.95193748412851  0.08482933752724
6   1.31224342296285  -0.51493690481604  -0.01699714179750
6   0.26310547730951  -1.37870020113574  -0.05960630767696
6   -1.03442189907132  -0.89491126179267  0.07325799083954
6   -1.35520683969359  0.48040919909846  -0.00290917793079
1   -0.49178551521429  2.52453696738072  -0.14666936963905
1   -2.31502240002498  0.89722080234455  -0.16344216296070
1   -1.88026636397611  -1.60149172038633  -0.08766508723379
1   0.37350980952410  -2.52652950409247  0.05192912286238
1   2.34882041347383  -0.65059784966335  -0.12279033691206
1   2.02778819285347  1.55540513310543  -0.10755824871411





