%nproc=
%Mem=
# TD=(NStates=1) B3LYP/6-31G(d,p)  

ABSSPCT

0 1
6   -0.25064158065929  1.38595936484834  0.01201770170871
6   1.05444264690086  0.90208654916773  0.04617975018359
6   1.33789322995330  -0.41672375700499  -0.12375820101403
6   0.21780904287366  -1.40634881684570  0.06185633130345
6   -1.06608909124756  -0.92540299264356  0.01679514381075
6   -1.31141443950680  0.47234608531850  -0.01836543792297
1   -0.34079528278554  2.52892127818242  -0.11326566716239
1   -2.24759380235319  0.80236446904350  -0.16261511498626
1   -2.01451823719095  -1.62471200271551  -0.06669571361974
1   0.64335621861824  -2.57200772796077  0.06711690554728
1   2.31841947237450  -0.72952430682461  0.01773846300504
1   1.86482008368049  1.49039095591104  0.23763005517178





