%nproc=4
%Mem=
# TD=(NStates=1) B3LYP/6-31G(d,p)  

ABSSPCT

0 1
6   -0.25465857495491  1.35195053222501  0.00234091491689
6   1.05469707998296  0.91862280530616  -0.02356746955093
6   1.33785237393962  -0.48492243905942  0.00921899192516
6   0.25504910064277  -1.35396295843635  0.03239729692156
6   -1.03030835969030  -0.88598597688616  -0.04139715580885
6   -1.34957048123375  0.47490442068256  0.01292586870949
1   -0.64211720234518  2.32178677764797  0.17992887083038
1   -2.39068072793967  0.89376546967484  0.12389417037345
1   -1.79819485972624  -1.69164023511899  -0.19964573289548
1   0.30292255254553  -2.42128786307434  0.22562316726666
1   2.35331772113132  -0.99913051785986  -0.09549093456195
1   1.97960511966120  1.62566427222596  -0.07252784675576





