%nproc=
%Mem=
# TD=(NStates=1) B3LYP/6-31G(d,p)  

ABSSPCT

0 1
6   -0.23437873480633  1.33191417068815  -0.03060159276664
6   1.04874114619736  0.90749636723424  0.00398525325466
6   1.26061777503916  -0.46885283965326  0.00029947773557
6   0.25910772857623  -1.41293788928732  0.02278911618354
6   -1.01224347759967  -0.87429383047221  0.00631328843586
6   -1.33076089865764  0.50411526520500  0.00650581852196
1   -0.38612069660308  2.38041476637950  -0.01222485292014
1   -2.29787671892040  0.85537194833945  0.05263485695710
1   -1.75300319565713  -1.73354798189181  -0.00447518240055
1   0.50384816368875  -2.43759272973677  -0.28244212057173
1   2.20728107430997  -0.67226213897375  0.00782302898059
1   1.84275962891900  1.73381324329978  0.08738902328097





