%nproc=
%Mem=
# TD=(NStates=1) B3LYP/6-31G(d,p)  

ABSSPCT

0 1
6   -0.25405694347266  1.37158124841642  -0.01320734916955
6   1.09333254884506  0.90093454019388  -0.02546994236839
6   1.32280150553444  -0.44843842961929  0.06188236039152
6   0.25297750405055  -1.33507918219361  -0.04338446687938
6   -1.11617717218522  -0.93284913299422  -0.00430226314988
6   -1.31847792883007  0.42452536501197  0.04035856664610
1   -0.44955613382078  2.51005108883176  -0.08816299827648
1   -2.27596225806899  0.94255094861870  -0.00942766364886
1   -2.04003982329877  -1.57332580299754  -0.04168431880217
1   0.66044203374746  -2.42657090308317  0.04229178900926
1   2.39348805870865  -0.68391911372796  -0.08225098578894
1   1.97606408434803  1.42711100450041  0.03009763961248





