%nproc=4
%Mem=
# TD=(NStates=1) B3LYP/6-31G(d,p)  

ABSSPCT

0 1
6   -0.26841691259814  1.39185641873668  -0.01437905804642
6   0.98984888314570  0.85286777704972  0.03276424487462
6   1.33906335850272  -0.48184279878104  -0.03418784653627
6   0.28680744673007  -1.41844130236901  0.02246925078718
6   -1.03919076414808  -0.83851152395052  -0.04231672776577
6   -1.30191299079169  0.49969325056350  0.01269497793408
1   -0.50514345676493  2.41624383509139  -0.08407354299279
1   -2.29579760175343  0.69702875067366  0.08405255032554
1   -1.86193913451691  -1.59344309587845  0.11917935437632
1   0.37575526044095  -2.54298998169835  0.16118442718579
1   2.38429887329137  -0.70881578722272  -0.09109021698941
1   1.82189706243913  1.69248603902706  0.11873850429809





