%nproc=
%Mem=
# TD=(NStates=1) B3LYP/6-31G(d,p)  

ABSSPCT

0 1
6   -0.22049033490059  1.38573416885472  -0.01386865094542
6   1.07235397755970  0.92195346729152  0.01897219552489
6   1.34152710172075  -0.46724125193052  -0.04828578410228
6   0.25340315734028  -1.40271716242831  0.00757454788363
6   -1.08882246941583  -0.85829212482696  -0.01172393921125
6   -1.35477479481466  0.44488280495568  -0.00238182086535
1   -0.65708513992265  2.51385780562161  0.05222335922803
1   -2.38179758194953  0.58521452236349  -0.00850623243455
1   -1.84138920282608  -1.65286774644234  0.20314660388875
1   0.52733905084251  -2.33594948527527  0.11812667707189
1   2.37296987408691  -0.89241843291426  0.08658308435715
1   1.94890792086557  1.46731750267495  0.20687341967550





