%nproc=
%Mem=
# TD=(NStates=1) B3LYP/6-31G(d,p)  

ABSSPCT

0 1
6   -0.25563220496468  1.40616099877031  -0.06799569777318
6   1.05499382295837  0.88737293087155  0.03344023279626
6   1.33089085157726  -0.45166696399861  -0.01587271683489
6   0.25787549038616  -1.36422331602922  0.01213508135973
6   -1.07583167848315  -0.92763228888624  -0.01820621766703
6   -1.33129023685381  0.46181346986354  0.06774725734910
1   -0.47941853162874  2.57082445702974  -0.03054929881052
1   -2.42582925431292  0.84385250575812  -0.12724552785647
1   -1.82450688167255  -1.70234079146845  0.03386249598669
1   0.54325613645885  -2.45204489455955  -0.10959863806202
1   2.34101362623340  -0.96807437454867  -0.02875511498574
1   2.06145774631718  1.51549040134139  0.13651477612872





