%nproc=4
%Mem=
# TD=(NStates=1) B3LYP/6-31G(d,p)  

ABSSPCT

0 1
6   -0.27523027810992  1.39581266287750  -0.07724967804871
6   1.00924785522084  0.91474385320047  0.09284074058353
6   1.32827803171150  -0.46981349492627  -0.10244637890705
6   0.24898852746043  -1.37218537165408  0.03400322406611
6   -1.04739990245385  -0.94179320222097  0.04756713005043
6   -1.29383194642091  0.46960056933250  -0.00231152442141
1   -0.28752624731842  2.54865603310279  -0.06195669077724
1   -2.27486607605680  0.92248126510634  0.01246070622051
1   -1.94808084977830  -1.60005720224597  -0.09957918812669
1   0.61639653907544  -2.33433784302432  -0.08992224853044
1   2.35049930161171  -1.01942518822482  -0.04005231830163
1   1.93053455933813  1.52159451198221  0.29570191256245





