%nproc=4
%Mem=
# TD=(NStates=1) B3LYP/6-31G(d,p)  

ABSSPCT

0 1
6   -0.28584365255956  1.36411476189494  0.00836606748129
6   1.02196868268768  0.82999484316783  0.02336322221667
6   1.33613378875550  -0.48692313325823  -0.00549458564338
6   0.27998139060333  -1.35742366185690  0.03957455624034
6   -1.02142760073138  -0.81400488569095  -0.03016088990249
6   -1.35112762637599  0.45971646210857  -0.01187539385323
1   -0.32530933486537  2.49920794733297  0.03714564419571
1   -2.34757550686860  0.77325642752744  -0.01652156012258
1   -1.65862723163035  -1.65319934385756  0.00849086317716
1   0.35295850502267  -2.48834400771555  0.04421503771362
1   2.36206250724186  -0.74930597526801  -0.26667185076899
1   1.84738973288583  1.63027940763729  -0.12249859403000





