%nproc=4
%Mem=
# TD=(NStates=1) B3LYP/6-31G(d,p)  

ABSSPCT

0 1
6   -0.27126027421445  1.35777286003415  -0.02103306821653
6   1.05758820040931  0.92703436923032  -0.02290421686497
6   1.28187501178153  -0.40425353981535  0.03538429022951
6   0.19733514436371  -1.38240426049792  0.01677454228965
6   -1.03937619273380  -0.90725064495475  -0.01529692640391
6   -1.23266407597519  0.44477315351853  0.04267388339627
1   -0.49578249733788  2.45186420977131  0.03493706708495
1   -2.35110309983976  0.84605165577516  -0.02683629739570
1   -1.87247876660636  -1.70555599390446  -0.18849393277429
1   0.42467715807043  -2.50749471320296  -0.13230292302675
1   2.43805534120281  -1.05923762489825  -0.06446018232156
1   1.90610875337696  1.57410073697528  -0.06158864264476





