%nproc=
%Mem=
# TD=(NStates=1) B3LYP/6-31G(d,p)  

ABSSPCT

0 1
6   -0.25923086929161  1.37883374141607  0.04269498332633
6   1.06334294461666  0.89439768759978  -0.03269866217121
6   1.23565913452056  -0.46383197929032  0.01939237009498
6   0.27098482819739  -1.38703152341163  -0.03410581703846
6   -1.02718439493683  -0.89476571869641  0.00558462629089
6   -1.28186288206185  0.46715186935520  -0.05671696149976
1   -0.56332520425125  2.48313166683699  -0.00841344436515
1   -2.29001137314854  0.89091324053535  0.31559500877065
1   -1.85387285315154  -1.72804985764765  0.11465498695756
1   0.45354708489438  -2.54578914665404  0.11126484060214
1   2.24044776514546  -0.73698601942609  0.20499061219510
1   1.98475532468961  1.65569141698533  -0.01203627077933





