%nproc=4
%Mem=
# TD=(NStates=1) B3LYP/6-31G(d,p)  

ABSSPCT

0 1
6   -0.23971334842736  1.34445338709905  -0.00175662911726
6   1.13641851178294  0.90366476516858  0.00832988636347
6   1.34583888086034  -0.43433534620330  0.01255024958179
6   0.26017435206246  -1.35697555710000  -0.03221385667952
6   -1.07281530932833  -0.89027652914979  -0.01916802607509
6   -1.42371665681718  0.44842171452854  0.01913283110143
1   -0.32508269450223  2.39568406482060  -0.14047022622650
1   -2.38798828353327  0.73319438375829  0.09491885648779
1   -1.81194088039793  -1.61529690055933  0.19261141238573
1   0.25824474257996  -2.48396452081077  -0.15433801141743
1   2.34782625958238  -0.87081203019784  0.35776570577579
1   1.83440820564724  1.69221141685647  -0.19638822969247





