%nproc=
%Mem=
# TD=(NStates=1) B3LYP/6-31G(d,p)  

ABSSPCT

0 1
6   -0.23680399416920  1.43812981033129  0.06549650135790
6   1.05066046765608  0.90998428817091  -0.05342554690166
6   1.32176731360553  -0.50830030209003  0.01442073379449
6   0.27689370521340  -1.38013697326595  -0.04980795402524
6   -1.08758196618022  -0.89790248917202  0.01753662045556
6   -1.29519761649954  0.44315062114991  -0.03417968816867
1   -0.51230931880352  2.52794770262157  0.06074579157127
1   -2.42475313283812  0.73368627516625  -0.05583880938544
1   -1.78254684437821  -1.72405689545147  0.11842225785588
1   0.36545029888399  -2.47169902474295  0.21628112373643
1   2.23673973139617  -0.80195447959501  0.22990894840477
1   1.73919702110810  1.66941987352339  -0.01778571388610





