%nproc=4
%Mem=
# TD=(NStates=1) B3LYP/6-31G(d,p)  

ABSSPCT

0 1
6   -0.20169401555388  1.37138103681124  0.04814074089939
6   1.08166625788769  0.92543856108422  0.02522186328123
6   1.26694790200485  -0.47049373633292  -0.06960852252849
6   0.26436032037496  -1.34626547409472  0.02121868729980
6   -1.09767286618384  -0.91182860574181  0.01667013889890
6   -1.31825434706797  0.44976525495916  -0.06456530125906
1   -0.49609505064706  2.38865121664498  -0.06626820149073
1   -2.37332135426617  0.73642638282155  -0.09723177911017
1   -1.89229267951878  -1.75526066404773  0.23834010692075
1   0.56896443447707  -2.38695401422142  0.02682688420641
1   2.38452702830465  -0.78988012565376  0.02282234909789
1   1.86681175234952  1.59575183253060  0.10067610053784





