%nproc=
%Mem=
# TD=(NStates=1) B3LYP/6-31G(d,p)  

ABSSPCT

0 1
6   -0.28724158250763  1.36251878807632  -0.00530037234141
6   1.12136985136772  0.90277124423702  0.03524525368564
6   1.30438690553703  -0.44457082493895  0.01612527121343
6   0.24767998796130  -1.29889446604891  -0.08360127999383
6   -1.07184047872512  -0.93079342364547  0.10319566523678
6   -1.32432248349172  0.43024903251958  -0.05250625703938
1   -0.46423226596127  2.40726100923912  -0.12740208541693
1   -2.29817539203959  0.75555927019236  -0.01095528810532
1   -1.84391944555381  -1.57705297138242  0.00088533113461
1   0.39399605722169  -2.33854572289157  -0.07847598597682
1   2.25166991031125  -0.99406796433876  0.00455052560582
1   2.05015327541501  1.46688116956617  -0.01756136954573





