%nproc=
%Mem=
# TD=(NStates=1) B3LYP/6-31G(d,p)  

ABSSPCT

0 1
6   -0.28565780764039  1.38180468785889  0.03096565371438
6   1.01600119157115  0.95377634429900  -0.03036379998339
6   1.32220296732802  -0.49403801113774  0.00742803418491
6   0.26750111182684  -1.42738150715257  -0.00049989469958
6   -1.00731639958749  -0.85660311605708  -0.02961863220200
6   -1.30937504449388  0.45282964347125  0.00276295037956
1   -0.31752859026929  2.32750588220074  -0.02034033818323
1   -2.37222964726456  0.88021036241765  -0.14184169845211
1   -1.95321014987924  -1.50208369299334  0.24506168582869
1   0.40841141711160  -2.44534091599710  0.13143761812899
1   2.26809385798949  -0.96500836196604  -0.11479450367657
1   1.88603677682070  1.62971338221961  0.19711025457297





