%nproc=4
%Mem=
# TD=(NStates=1) B3LYP/6-31G(d,p)  

ABSSPCT

0 1
6   -0.24873758240956  1.32696122685555  -0.06047344368811
6   1.03342437923632  0.91060524822906  0.01440620128823
6   1.25798209009581  -0.45083104702450  -0.03339279536197
6   0.26613173332642  -1.42255355323617  -0.00275575565475
6   -0.98946498150459  -0.88100145318816  0.03326006836871
6   -1.31903663244042  0.49875197636796  0.02530179961900
1   -0.51013070103749  2.45484473041215  0.25077797065502
1   -2.37743524147248  1.01518619773953  0.02659388683999
1   -1.81684055539283  -1.60079471982420  -0.29492740251337
1   0.57588585602989  -2.36868808339112  0.14036112725631
1   2.27387049352027  -0.79579021014955  0.13434392332609
1   1.88776778100398  1.45590124525168  0.08414075834445





