%nproc=4
%Mem=
# TD=(NStates=1) B3LYP/6-31G(d,p)  

ABSSPCT

0 1
6   -0.25134606404129  1.37821444482099  0.01467891178423
6   1.09838114957749  0.93172555657135  0.01009184648995
6   1.28807495011542  -0.46738235539788  -0.03731312049790
6   0.22740183868541  -1.35255429917620  -0.02002091682516
6   -1.07462594901423  -0.89330364757351  0.09345470061313
6   -1.28640202641795  0.40806770918553  -0.06330123747801
1   -0.56034055378025  2.60085394495487  0.11422092314144
1   -2.22346494202557  0.54902610509977  -0.15424187736986
1   -1.99361609769770  -1.47817782769001  -0.04695937804223
1   0.47768285757999  -2.43375630100044  -0.10903687906492
1   2.41908036892026  -0.82066592603179  0.12021064759373
1   1.88708247792911  1.55136122144564  0.03986564894432





