%nproc=
%Mem=
# TD=(NStates=1) B3LYP/6-31G(d,p)  

ABSSPCT

0 1
6   -0.24016953293597  1.36918546825542  0.00831968718813
6   1.01511646862699  0.86938526442651  0.01790478674549
6   1.33242741562682  -0.49362743947609  -0.00622654290634
6   0.27545169301561  -1.31022135332897  -0.04610510817392
6   -1.07968200925960  -0.90637347364240  -0.02055702524223
6   -1.29887464452849  0.45849747885302  0.01031035752491
1   -0.44586806781880  2.49870281379875  -0.20258764501620
1   -2.32277660777943  0.76060206480263  0.05030761775260
1   -1.85396605824164  -1.60531703626912  0.29794779746397
1   0.42379723550266  -2.33320907748329  0.11474058624190
1   2.33683033800748  -0.83350067816987  0.20783381454430
1   1.83356937291168  1.65530840405064  0.01261169997900





