%chk=checkpoint.chk
%nprocshared=4
# B3LYP/6-31G(d,p) OPT FREQ 

12poly

0 1
  C   -2.3520831    1.0971189    0.0187622
  C   -1.1381144    1.6509121   -0.0229377
  C    0.0825529    0.8197259    0.0187543
  C    1.2983124    1.3804756   -0.0232554
  C    2.5207162    0.5509232    0.0184453
  C    3.7355940    1.1137449   -0.0233504
  C    4.9597316    0.2868135    0.0184325
  C    6.1732875    0.8526061   -0.0229648
  C    7.3994623    0.0288187    0.0189709
  C    8.6117750    0.5974633   -0.0218942
  C    9.8393516   -0.2240827    0.0202362
  C   11.0512419    0.3456440   -0.0201423
  C   12.2784489   -0.4763446    0.0221396
  C   13.4914658    0.0910524   -0.0180806
  C   14.7156938   -0.7353808    0.0241963
  C   15.9316668   -0.1744644   -0.0164466
  C   17.1503100   -1.0092793    0.0255987
  C   18.3705851   -0.4580979   -0.0160839
  C   19.5821772   -1.3033793    0.0255462
  C   20.8069461   -0.7626480   -0.0175029
  C   22.0120253   -1.6174243    0.0236873
  C   23.2401444   -1.0847432   -0.0205386
  C   24.4403679   -1.9454897    0.0203888
  C   25.6677374   -1.4225129   -0.0240209
  H   -3.2360547    1.7258648   -0.0130270
  H   -2.4766749    0.0202524    0.0844878
  H   -1.0552987    2.7325268   -0.0886421
  H   -0.0124502   -0.2618185    0.0845198
  H    1.3918329    2.4621785   -0.0889671
  H    2.4280236   -0.5308199    0.0840929
  H    3.8272920    2.1955950   -0.0888976
  H    4.8694686   -0.7951625    0.0838618
  H    6.2623913    1.9346775   -0.0882566
  H    7.3117172   -1.0534012    0.0840997
  H    8.6987113    1.6797146   -0.0868911
  H    9.7528829   -1.3064395    0.0850717
  H   11.1378958    1.4279198   -0.0849211
  H   12.1905673   -1.5586036    0.0868406
  H   13.5809981    1.1730903   -0.0828696
  H   14.6228957   -1.8172154    0.0890726
  H   16.0275639    0.9070121   -0.0815833
  H   17.0495866   -2.0903620    0.0910114
  H   18.4751992    0.6225354   -0.0818810
  H   19.4724387   -2.3835292    0.0917334
  H   20.9202638    0.3170548   -0.0840798
  H   21.8949506   -2.6967790    0.0906169
  H   23.3603675   -0.0058322   -0.0877381
  H   24.3309148   -3.0246872    0.0876570
  H   25.8193998   -0.3493050   -0.0914702
  H   26.5354609   -2.0735990    0.0072055


  