%chk=checkpoint.chk
%nprocshared=4
# B3LYP/6-31G(d,p) OPT FREQ 

16poly

0 1
  C   -2.3782182    1.1210005    0.0171636
  C   -1.1628589    1.6718582   -0.0235121
  C    0.0555093    0.8374669    0.0190392
  C    1.2729995    1.3945727   -0.0220866
  C    2.4922795    0.5606130    0.0203704
  C    3.7096044    1.1181578   -0.0209320
  C    4.9293039    0.2848064    0.0213681
  C    6.1462056    0.8432220   -0.0202107
  C    7.3667272    0.0110547    0.0218630
  C    8.5829058    0.5710017   -0.0200475
  C    9.8047557   -0.2592344    0.0217662
  C   11.0198438    0.3030481   -0.0204500
  C   12.2435860   -0.5244049    0.0211230
  C   13.4571946    0.0410617   -0.0212769
  C   14.6833657   -0.7827780    0.0201292
  C   15.8951511   -0.2133858   -0.0222556
  C   17.1241494   -1.0329719    0.0190927
  C   18.3338909   -0.4591922   -0.0230585
  C   19.5658732   -1.2742418    0.0183397
  C   20.7735370   -0.6960300   -0.0234192
  C   22.0083621   -1.5067200    0.0180935
  C   23.2141267   -0.9244922   -0.0232405
  C   24.4513747   -1.7314462    0.0183846
  C   25.6555983   -1.1459961   -0.0226296
  C   26.8946664   -1.9501431    0.0190491
  C   28.0978035   -1.3624535   -0.0218311
  C   29.3380474   -2.1648050    0.0198267
  C   30.5405472   -1.5758211   -0.0210872
  C   31.7814197   -2.3772492    0.0205064
  C   32.9835942   -1.7877398   -0.0205081
  C   34.2239628   -2.5890637    0.0210481
  C   35.4240242   -2.0056008   -0.0196563
  H   -3.2606671    1.7518194   -0.0152581
  H   -2.5054340    0.0444096    0.0826574
  H   -1.0772215    2.7532454   -0.0890455
  H   -0.0426391   -0.2438103    0.0846518
  H    1.3701417    2.4759469   -0.0877232
  H    2.3951997   -0.5207348    0.0860285
  H    3.8064425    2.1995455   -0.0866326
  H    4.8329305   -0.7965947    0.0871031
  H    6.2421261    1.9246917   -0.0859979
  H    7.2716070   -1.0704468    0.0876880
  H    8.6772915    1.6526070   -0.0859180
  H    9.7115751   -1.3408953    0.0876636
  H   11.1119737    1.3848502   -0.0863656
  H   12.1530856   -1.6062884    0.0870373
  H   13.5463400    1.1231190   -0.0871642
  H   14.5962187   -1.8649388    0.0859723
  H   15.9807124    0.8689701   -0.0880192
  H   17.0408153   -2.1154427    0.0847659
  H   18.4155419    0.6234785   -0.0886088
  H   19.4864709   -2.3570239    0.0837676
  H   20.8513272    0.3869391   -0.0887066
  H   21.9326138   -2.5897820    0.0832565
  H   23.2884948    0.1587292   -0.0882782
  H   24.3786533   -2.8147318    0.0833297
  H   25.7272798   -0.0625869   -0.0874909
  H   26.8241397   -3.0335851    0.0838698
  H   28.1676580   -0.2789253   -0.0866169
  H   29.2688712   -3.2483403    0.0846193
  H   30.6093766   -0.4922322   -0.0858807
  H   31.7130571   -3.4608531    0.0853286
  H   33.0527407   -0.7041589   -0.0853447
  H   34.1674830   -3.6723980    0.0858272
  H   35.5221522   -0.9259165   -0.0844338
  H   36.3231841   -2.6123945    0.0120012


