%chk=checkpoint.chk
%nprocshared=4
# B3LYP/6-31G(d,p) OPT FREQ 

7poly

0 1
  C   -2.2820320    1.1600157    0.0121193
  C   -1.0625934    1.7016750   -0.0303754
  C    0.1494280    0.8582885    0.0151332
  C    1.3712205    1.4057940   -0.0279741
  C    2.5837010    0.5621824    0.0173721
  C    3.8057646    1.1091472   -0.0261743
  C    5.0177941    0.2648695    0.0189398
  C    6.2401499    0.8111156   -0.0251393
  C    7.4517482   -0.0338265    0.0197425
  C    8.6743108    0.5117925   -0.0247702
  C    9.8848781   -0.3337700    0.0199854
  C   11.1053082    0.2054644   -0.0243261
  H   -3.1597845    1.7972248   -0.0225503
  H   -2.4172524    0.0846211    0.0813163
  H   -0.9688432    2.7821464   -0.0996550
  H    0.0429668   -0.2219755    0.0845392
  H    1.4769241    2.4861164   -0.0974554
  H    2.4775652   -0.5180799    0.0869706
  H    3.9121355    2.1893769   -0.0958845
  H    4.9110848   -0.8153188    0.0887927
  H    6.3471054    1.8912714   -0.0951042
  H    7.3446716   -1.1139784    0.0898261
  H    8.7824552    1.5918344   -0.0949317
  H    9.7891781   -1.4140249    0.0901173
  H   11.2425723    1.2805237   -0.0944887
  H   11.9818164   -0.4335000    0.0097631


  