%chk=29.chk
# B3LYP/6-31G(d,p) OPT FREQ

29poly

0 1
  C   -6.6928976    1.8296253    1.4675643
  C   -5.5655184    2.4864790    1.1714966
  C   -4.2554049    1.9286809    1.5521951
  C   -3.1182767    2.5063399    1.1497502
  C   -1.8210521    1.8744417    1.4499262
  C   -0.6918915    2.3271200    0.8949953
  C    0.5721928    1.5960886    1.0948691
  C    1.6548561    1.8917362    0.3679564
  C    2.8639983    1.0526601    0.4645122
  C    3.8574401    1.1943754   -0.4267771
  C    5.0469831    0.3113653   -0.5083877
  C    5.3668863   -0.6388419    0.3957165
  C    6.5063269   -1.5835403    0.2546996
  C    7.2101398   -1.7476595   -0.8835151
  C    8.3125896   -2.7207583   -1.0736713
  C    8.8685434   -3.4686901   -0.0987749
  C    9.9834324   -4.4282128   -0.3211380
  C   10.4148078   -4.8232492   -1.5375861
  C   11.5580042   -5.7367472   -1.7806412
  C   12.4087190   -6.1717648   -0.8374203
  C   13.5723109   -6.9967641   -1.2168494
  C   14.5357250   -7.2700476   -0.3297098
  C   15.7519861   -7.9952469   -0.7440311
  C   16.7997017   -8.0940837    0.0822040
  C   18.0575054   -8.7222917   -0.3662980
  C   19.1553126   -8.6668903    0.3973008
  C   20.4395911   -9.2164606   -0.0798409
  C   21.5603473   -9.0481466    0.6329721
  C   22.8588625   -9.5461586    0.1367438
  C   23.9877019   -9.3126051    0.8182934
  C   25.2917446   -9.7863564    0.3129198
  C   26.4213357   -9.5313843    0.9768786
  C   -8.0062621    2.3451630    1.0371147
  C   -9.1250108    1.6456343    1.2890961
  C  -10.4955084    2.0537861    0.8890833
  C  -10.7956334    3.1829855    0.2138890
  C  -12.1694883    3.5967580   -0.1721257
  C  -13.2861019    2.8946069    0.0844072
  C  -14.6107368    3.4161950   -0.3085392
  C  -15.7251712    2.7249609   -0.0159510
  C  -17.1105650    3.1699253   -0.3119706
  C  -17.4344502    4.3241285   -0.9320534
  C  -18.8253632    4.7873853   -1.1807770
  C  -19.9337227    4.1309842   -0.7979764
  C  -21.2742592    4.6951891   -1.0530446
  C  -22.3717801    4.0515249   -0.6368628
  C  -23.7180199    4.6145228   -0.8570131
  C  -24.8054364    3.9647765   -0.4245401
  C  -26.1573083    4.5218109   -0.6261794
  C  -27.2388895    3.8585742   -0.1992004
  C  -28.5952155    4.4067607   -0.3971793
  C  -29.6740981    3.7255826    0.0082504
  C  -31.0337864    4.2638024   -0.1960671
  C  -32.1115897    3.5641926    0.1802901
  C  -33.4735310    4.0933705   -0.0345269
  C  -34.5508201    3.3784585    0.3141206
  C  -35.9140892    3.9011013    0.0898264
  C  -36.9910742    3.1762781    0.4188825
  C  -38.3543894    3.6958226    0.1890973
  C  -39.4304359    2.9726139    0.5068113
  H  -40.4236324    3.3719222    0.3289980
  H  -39.3333419    1.9827000    0.9429519
  H  -38.4923860    4.6816671   -0.2468765
  H  -36.8650927    2.1893582    0.8585748
  H  -36.0401360    4.8865297   -0.3530618
  H  -34.4249084    2.3957281    0.7631361
  H  -33.5983340    5.0737256   -0.4888506
  H  -31.9872000    2.5879024    0.6436253
  H  -31.1566441    5.2371023   -0.6658188
  H  -29.5523505    2.7572915    0.4888374
  H  -28.7146947    5.3722090   -0.8836776
  H  -27.1217055    2.8984071    0.2986080
  H  -26.2709657    5.4802729   -1.1276097
  H  -24.6959487    3.0110996    0.0874034
  H  -23.8222357    5.5685312   -1.3688134
  H  -22.2746765    3.1012006   -0.1161956
  H  -21.3663701    5.6482516   -1.5688962
  H  -19.8758442    3.1840902   -0.2763629
  H  -18.9324672    5.7402321   -1.6924528
  H  -16.6596759    4.9975810   -1.2732140
  H  -17.8831693    2.4949887    0.0293832
  H  -15.6292052    1.7725155    0.4991481
  H  -14.6558412    4.3738010   -0.8123661
  H  -13.2474650    1.9430513    0.5995394
  H  -12.2571324    4.5484621   -0.6896816
  H  -10.0133845    3.8703659   -0.0783567
  H  -11.2767842    1.3668869    1.1841175
  H   -9.0423692    0.7020258    1.8224607
  H   -8.0351565    3.2874762    0.5042871
  H   -6.6424936    0.8870857    2.0086539
  H   -5.6089862    3.4180388    0.6115675
  H   -4.2184961    1.0043527    2.1250181
  H   -3.1500795    3.4102360    0.5454138
  H   -1.7961627    0.9837907    2.0745163
  H   -0.7180345    3.1882303    0.2307921
  H    0.5965807    0.7530768    1.7823643
  H    1.6166423    2.7004827   -0.3586754
  H    2.8880806    0.2716970    1.2149989
  H    3.7663634    1.9561413   -1.1969126
  H    5.6602882    0.4634369   -1.3860380
  H    4.7739780   -0.7627728    1.2924879
  H    6.7182453   -2.1969448    1.1211566
  H    6.9622303   -1.1741421   -1.7663168
  H    8.6795048   -2.7859504   -2.0887954
  H    8.5341386   -3.3662834    0.9257284
  H   10.4479949   -4.8174025    0.5757301
  H    9.9251621   -4.4700155   -2.4347753
  H   11.7345670   -6.0195783   -2.8152641
  H   12.2984752   -5.8783935    0.1998414
  H   13.6768169   -7.3307589   -2.2469247
  H   14.4546637   -6.8990355    0.6896330
  H   15.8177067   -8.3969371   -1.7528268
  H   16.7472537   -7.6552346    1.0762058
  H   18.1026981   -9.1878025   -1.3483558
  H   19.1153221   -8.1712729    1.3648446
  H   20.4777197   -9.7315277   -1.0370822
  H   21.5228040   -8.5130519    1.5793302
  H   22.8965675  -10.0925395   -0.8029732
  H   23.9500079   -8.7559285    1.7521073
  H   25.3417043  -10.3473104   -0.6164496
  H   26.4119054   -8.9700771    1.9066882
  H   27.3705323   -9.8843876    0.5873431

