%nproc=4
%Mem=2Gb
# TD=(NStates=1) B3LYP/6-31G(d,p)  

ABSSPCT

0 1
6   -0.22057331247946  1.33044554080633  0.02031342317095
6   1.11128651760916  0.94863291243306  -0.04736144198677
6   1.36068365023383  -0.45297618923949  0.02187066980266
6   0.24976284577897  -1.34331983363506  0.04378860053555
6   -1.12814251396274  -0.94159605123793  -0.01350528697116
6   -1.37150651366213  0.44875129841858  -0.02270669099284
1   -0.49227411723904  2.33453448615503  0.16657928481023
1   -2.27463951698737  1.01959887415518  0.17574573736401
1   -1.91038305492846  -1.67767957544960  -0.18410280768761
1   0.40749561093871  -2.36366689797035  -0.10620474364465
1   2.42912219621164  -0.91641462429428  -0.00310407711499
1   1.84767832922754  1.72307001905190  -0.08192435888382





