%nproc=4
%Mem=2Gb
# TD=(NStates=1) B3LYP/6-31G(d,p)  

ABSSPCT

0 1
6   -0.24030873510373  1.38904594191407  -0.06488911756840
6   1.07030900280256  0.91197222737186  -0.00028135561996
6   1.32835940471910  -0.45478688761222  0.03929742361409
6   0.23456451343788  -1.40111587491086  -0.02866786129784
6   -1.05346895941343  -0.93117665394833  0.01747062093253
6   -1.32883930327708  0.46405853359217  0.04511474346279
1   -0.54311993142363  2.46514127276983  -0.02717100309007
1   -2.28134107983720  0.90816310836022  0.06322875773493
1   -1.82514529048721  -1.61653776234124  -0.05203334777130
1   0.37112899315368  -2.40947132725356  -0.22236155860570
1   2.30844456658410  -0.70245949011441  0.05328935650395
1   1.86723260247551  1.56471231395751  0.10163006033312





