%nproc=4
%Mem=2Gb
# TD=(NStates=1) B3LYP/6-31G(d,p)  

ABSSPCT

0 1
6   -0.22334973599307  1.36710796457105  -0.06646729997092
6   1.07309959107866  0.95050280630109  0.03393809800480
6   1.33786487683834  -0.47362359692643  0.00100799440174
6   0.20126201712644  -1.37020264989027  -0.06488361631202
6   -1.09766146616626  -0.93026466690763  0.03582655870985
6   -1.31746632852769  0.43376716904087  0.03676259811311
1   -0.36647509776210  2.50740172098051  -0.06292173562979
1   -2.29780951116880  0.91105660280571  0.09371052098016
1   -1.71700823145607  -1.78669222754857  -0.03109292728839
1   0.38969542224646  -2.44905376478084  0.02435508622025
1   2.44326757200807  -0.72651788641048  0.22939665206060
1   1.87257965470081  1.74839435745673  0.07417685211384





