%nproc=4
%Mem=2Gb
# TD=(NStates=1) B3LYP/6-31G(d,p)  

ABSSPCT

0 1
6   -0.23360039150501  1.36168040021078  -0.04342504325071
6   1.07187346744218  0.91131215858758  -0.01680326136499
6   1.30637881744576  -0.46134892390345  0.04518198039940
6   0.22256032956849  -1.36341910017369  0.01402844401177
6   -1.08575957024847  -0.90831466531048  -0.05558680556506
6   -1.31004507077774  0.45088196319347  0.08567659694057
1   -0.48041013442617  2.53382672030095  -0.02834910989172
1   -2.34975739742919  0.71963945572733  0.04253339092391
1   -1.81201142393404  -1.63237755752003  -0.16510407082616
1   0.61636314591084  -2.38313738192950  -0.05075395699885
1   2.43030967480062  -0.68352905801046  -0.04812826482937
1   1.95863460452080  1.49951287117256  -0.06604311565233





