%nproc=4
%Mem=2Gb
# TD=(NStates=1) B3LYP/6-31G(d,p)  

ABSSPCT

0 1
6   -0.23346179542893  1.32884962867458  0.01107003177425
6   1.09182220937827  0.93376751958612  0.00021730771000
6   1.31293877431818  -0.50295709489581  -0.01929451384460
6   0.25973796201673  -1.34829745067463  -0.01319186144888
6   -1.12215711086564  -0.89716767684005  0.03606994781937
6   -1.32937212629129  0.45568923373588  -0.04058043328346
1   -0.53782482919886  2.31685659071458  0.21129176547761
1   -2.22820879246849  0.96920237719714  0.00648000235155
1   -1.76851980743602  -1.69491963069864  -0.02643311423627
1   0.61547739090095  -2.28844107868111  0.06265793302641
1   2.36824955093429  -0.67977669080232  0.17319727956357
1   1.82299067157336  1.68154686960714  -0.10132118258037





