%nproc=4
%Mem=2Gb
# TD=(NStates=1) B3LYP/6-31G(d,p)  

ABSSPCT

0 1
6   -0.29141499431001  1.41532645586273  -0.02943424125540
6   1.08399684065723  0.92481800051917  0.09472621017387
6   1.26689610183719  -0.49166779256146  -0.05442970840814
6   0.26795473924485  -1.39468745994975  0.01175354830389
6   -0.98854980952739  -0.89086409806999  0.01399594755905
6   -1.35972494653737  0.47854538269224  -0.02675648900718
1   -0.37110504527703  2.40274473075339  -0.01823072839743
1   -2.28343931874961  0.68128790809638  -0.15299364077754
1   -1.93435303515793  -1.63803464667701  0.26496997563201
1   0.47424955421927  -2.50660050957048  -0.05363329346745
1   2.33569365731291  -0.98530998824929  -0.20126011633195
1   1.99269206852619  1.59887110653287  -0.02160631245343





