%nproc=4
%Mem=2Gb
# TD=(NStates=1) B3LYP/6-31G(d,p)  

ABSSPCT

0 1
6   -0.20808394214847  1.36424117282442  0.02121003630403
6   1.07261372743851  0.97434962871451  0.01285382627674
6   1.31972695314666  -0.45886810025870  -0.06296084584932
6   0.21912296148228  -1.39789439437456  0.06970978096080
6   -1.10985540506697  -0.91545821819239  -0.03814814955792
6   -1.31652606382428  0.43559407543550  0.05691999001279
1   -0.48166827707622  2.47909114127743  -0.15695653750377
1   -2.32157905335716  0.77804651193666  -0.19191958432918
1   -1.67614221035098  -1.71544243013626  -0.43269118978623
1   0.40312924395275  -2.48480686891171  0.15667099420678
1   2.34600581366811  -0.68910691599492  -0.03863696048432
1   1.98663977336554  1.52392913897544  -0.14385392087883





