%nproc=4
%Mem=2Gb
# TD=(NStates=1) B3LYP/6-31G(d,p)  

ABSSPCT

0 1
6   -0.25970297391759  1.37726099303030  -0.01142142169276
6   1.03320363036273  0.88231360864846  0.00440514930664
6   1.24258534558719  -0.46609089601280  0.01010324270099
6   0.26500596315835  -1.37209535868238  -0.00849427037293
6   -1.00615008202501  -0.87332799114530  0.01105353582968
6   -1.27922298860559  0.47022206079262  0.00845629257500
1   -0.55913262618445  2.40806964104915  0.03791647832614
1   -2.26796379830216  0.81364592227270  -0.00988732731870
1   -1.90657455463444  -1.63157250687027  -0.14369337969866
1   0.57672400399122  -2.50513415588277  0.06948641021802
1   2.30460078468285  -0.85946278021241  -0.07248999579595
1   1.88984464526046  1.57859252804975  -0.05033329679106





