%nproc=4
%Mem=2Gb
# TD=(NStates=1) B3LYP/6-31G(d,p)  

ABSSPCT

0 1
6   -0.28272011328008  1.34182083850143  0.08011908981036
6   1.06745637511615  0.88115243632853  -0.07824363319860
6   1.34884260174100  -0.46829066991043  -0.00814195000000
6   0.25604875902431  -1.28735310740881  0.08102440301828
6   -1.08427531281124  -0.91588478256413  -0.06036010790639
6   -1.36745028468091  0.45732919720790  -0.00442865321988
1   -0.17966996490414  2.52497978684566  0.12326704008864
1   -2.38494218460816  0.89358382749594  -0.10425744858940
1   -1.85723593809721  -1.83550822331788  -0.15832117178898
1   0.57699875345050  -2.37919911802967  0.16523179184250
1   2.38438924870962  -0.89457505117025  -0.13008790440088
1   2.19095891147375  1.50350562007271  0.00343526855535





