%nproc=4
%Mem=2Gb
# TD=(NStates=1) B3LYP/6-31G(d,p)  

ABSSPCT

0 1
6   -0.28127396386831  1.34681160209876  -0.07599918616661
6   1.07449458677244  0.92959250616880  0.02114319644648
6   1.28877999194026  -0.50396876054435  0.06331588780576
6   0.20716768679677  -1.32274360562498  -0.06119481901761
6   -1.03072302809749  -0.87007193984366  0.06939014491756
6   -1.27687611030463  0.42798477434937  0.00920561972398
1   -0.58130219663560  2.27619476405797  -0.04709815186468
1   -2.31270525528989  0.84419090339478  0.02340256341476
1   -1.94125718639952  -1.54095672149931  0.03423654933859
1   0.67134615097707  -2.36268660271713  -0.36494188958122
1   2.44063676628145  -0.84567403555006  -0.11669927781509
1   1.90849052424337  1.55747231324505  0.12803553849704





