%nproc=4
%Mem=2Gb
# TD=(NStates=1) B3LYP/6-31G(d,p)  

ABSSPCT

0 1
6   -0.24982093480153  1.39390251562272  -0.02336786940664
6   1.01569975681868  0.93658406227410  -0.02323841622126
6   1.29457695483736  -0.43434736852787  0.00302735971468
6   0.27644673191733  -1.44259116428285  -0.00126402505162
6   -1.07328489178566  -0.89243533772240  0.00178418383313
6   -1.28740861242048  0.45318191087919  0.03376095427096
1   -0.26403472857936  2.34845674335814  0.08890740469493
1   -2.28501247374778  0.94568641149726  -0.06715255788282
1   -1.84944583576847  -1.59736732045834  -0.02757574115392
1   0.40737337734496  -2.63861754896675  -0.10484290059124
1   2.37138899430330  -0.84302213494235  0.17743835750798
1   1.87139330615767  1.65009665690869  0.07894184069480





