%nproc=4
%Mem=2Gb
# TD=(NStates=1) B3LYP/6-31G(d,p)  

ABSSPCT

0 1
6   -0.23806385347072  1.33120293819850  0.01107142790031
6   1.03894335722660  0.94622761350643  0.04322174104570
6   1.29654005229659  -0.46201296384255  -0.00052346637147
6   0.28030989760430  -1.37480819580544  -0.05982963534242
6   -1.09972155633240  -0.88586744412490  0.04349716245226
6   -1.28922487058156  0.43118605648345  -0.01609836472139
1   -0.42456876760814  2.35628237554682  -0.35437998608795
1   -2.38448516305417  0.96557752384129  -0.01406034014965
1   -1.95222562977136  -1.60511145690966  0.07576288790250
1   0.47088971064813  -2.34419489199767  -0.02088165461669
1   2.41085428834310  -0.77885258478322  0.02245529989059
1   2.02358299925684  1.52845634998860  -0.04913896400396





