%nproc=4
%Mem=2Gb
# TD=(NStates=1) B3LYP/6-31G(d,p)  

ABSSPCT

0 1
6   -0.27417781547513  1.35575846828084  0.06516687191999
6   1.12278630768362  0.93441587728226  -0.06608707914831
6   1.30607172026906  -0.46579001537715  0.03179303902394
6   0.21423757492545  -1.36827862304107  0.02441896587587
6   -1.08521987887454  -0.92368591561909  -0.03849099615558
6   -1.28498405125367  0.41169970915346  -0.01973417290112
1   -0.55798859455947  2.44531022640187  -0.09024963392738
1   -2.16675419046434  1.07668082935867  0.18682623766074
1   -2.02170156230577  -1.51527759081922  -0.08491357108903
1   0.51876992093599  -2.50521779028633  0.08564985331898
1   2.38109461648273  -0.60818713652525  -0.05798209269285
1   1.88895499157560  1.75203439245412  0.00821949411947





