%nproc=4
%Mem=2Gb
# TD=(NStates=1) B3LYP/6-31G(d,p)  

ABSSPCT

0 1
6   -0.21396865597250  1.29482827071239  0.03733285920380
6   0.99355715647002  0.89449117762076  -0.06469475777912
6   1.33108513101767  -0.46206130825726  0.01088570245114
6   0.20673468633968  -1.31316455426012  0.04058485993339
6   -1.02827157352414  -0.89917930252660  -0.00160184071699
6   -1.29498985917350  0.48743381632669  0.00692785209712
1   -0.29668110741468  2.55964529141844  0.11362684122861
1   -2.33577418698687  0.63495252420288  -0.10672209158226
1   -1.67731104105723  -1.64909620842259  -0.27103255440001
1   0.39460239184750  -2.41559916285080  -0.11403433055699
1   2.24754719931573  -0.80987690283873  0.06596494022821
1   1.74471381226791  1.64766071007385  -0.07359052632978





