%nproc=4
%Mem=2Gb
# TD=(NStates=1) B3LYP/6-31G(d,p)  

ABSSPCT

0 1
6   -0.23549116771885  1.40876203307795  0.03814593082574
6   1.05204623680143  0.92213030162675  0.03589664433083
6   1.34066151963802  -0.48105360279532  -0.10577170447823
6   0.22613898493391  -1.32796211124314  0.08606775572729
6   -1.09625024639057  -0.94174057260293  -0.02630345808118
6   -1.31457043535956  0.45704584058505  -0.02164267210032
1   -0.36052835991745  2.34342782420833  0.22322786419131
1   -2.31122899623504  0.80232407763731  -0.30705976858352
1   -1.70664425490580  -1.80766094887506  -0.01604099316162
1   0.46150126564848  -2.47054832599230  0.15714495299980
1   2.38459515852392  -0.84630404480113  -0.00260423186793
1   1.80939433017793  1.52897905744997  -0.17787949250823





