%nproc=4
%Mem=2Gb
# TD=(NStates=1) B3LYP/6-31G(d,p)  

ABSSPCT

0 1
6   -0.26705979652808  1.35982602979281  -0.01726425752675
6   1.00458389047528  0.90335965625038  -0.03524292873763
6   1.31474700548934  -0.50928537341558  0.03963278001011
6   0.27150009529396  -1.34559336840862  -0.03869796037964
6   -1.04854325141769  -0.85906079767934  0.01372877379292
6   -1.32228216302213  0.45060665662224  0.01548782647595
1   -0.25217255549909  2.49668955639347  0.04777214194593
1   -2.20156344471782  0.93980129794716  0.13090761491814
1   -1.67829847623227  -1.82476759432931  0.03274858890743
1   0.53197187116515  -2.29878682614929  -0.22757487121339
1   2.34041144288985  -0.95495506704786  0.38527560518930
1   1.84021879692247  1.58075305834088  -0.06618411465271





