%nproc=4
%Mem=2Gb
# TD=(NStates=1) B3LYP/6-31G(d,p)  

ABSSPCT

0 1
6   -0.30884616491775  1.37863644566202  0.04608869675975
6   1.04917940940842  0.90060768620996  0.00882378359015
6   1.34569194155400  -0.48304542169308  -0.02362866036449
6   0.25984304029301  -1.36846277651203  0.01679343634267
6   -1.05726976366014  -0.85407208371285  -0.02515070328454
6   -1.27909582242828  0.43585668729396  -0.02213765327781
1   -0.49797506850720  2.51303343667975  0.07211050083806
1   -2.17518765090207  0.72417270980437  -0.08353868394212
1   -2.07250128806997  -1.69991355206435  0.02597129425568
1   0.23953320991371  -2.37748446178380  0.23513433226605
1   2.48137131534405  -0.89283767067063  -0.03783418575190
1   1.93478603901672  1.62734342251710  -0.21934866087946





