%nproc=4
%Mem=2Gb
# TD=(NStates=1) B3LYP/6-31G(d,p)  

ABSSPCT

0 1
6   -0.27909740366803  1.33821433778838  -0.03871721648326
6   1.04107264102116  0.93005282217610  -0.02821734952615
6   1.34549413816311  -0.52297029418033  0.05628247410027
6   0.27260595030797  -1.39622445570629  -0.03563362419731
6   -1.09290000119868  -0.87883065082568  -0.01284697243353
6   -1.30301647160910  0.49953882129228  0.08492949168831
1   -0.33862471879686  2.46636325894203  -0.13948941465731
1   -2.31715618906142  0.74156477096970  0.13617814431297
1   -1.80293296510660  -1.54173522787330  -0.33894441836165
1   0.38536904333748  -2.42755342536563  -0.02382599170313
1   2.56481889588303  -0.59455362110949  0.18543969727401
1   1.73708255314647  1.71159213572433  -0.10843288397481





