%nproc=4
%Mem=2Gb
# TD=(NStates=1) B3LYP/6-31G(d,p)  

ABSSPCT

0 1
6   -0.30589307940276  1.41838276645137  -0.02691284885075
6   1.05270267537472  0.89632401482869  -0.04998972403152
6   1.37849483864506  -0.51113882115509  0.03500947082610
6   0.24764595281697  -1.34318091327428  -0.00038435965776
6   -1.03342854724342  -0.92131994354362  0.02439598766981
6   -1.31352709009978  0.46036244946655  0.03434601626472
1   -0.50264862879328  2.48754975084382  -0.04600263513429
1   -2.35623385199236  0.81548266938745  0.00064905109407
1   -1.98705683468364  -1.55860959336825  -0.23741958680795
1   0.26660799612872  -2.36713794966557  -0.12818941027114
1   2.44707290221088  -0.80087381525143  -0.10684717959922
1   1.82680050498021  1.41868629199297  0.32899674817680





