%nproc=4
%Mem=2Gb
# TD=(NStates=1) B3LYP/6-31G(d,p)  

ABSSPCT

0 1
6   -0.22586069728960  1.32293325910606  0.04534428399716
6   1.09399378506344  0.94833837906896  0.06324972990861
6   1.29355481930702  -0.44991764830718  -0.10037595790072
6   0.21788493671391  -1.33872309402148  0.05821835108063
6   -1.01835155355436  -0.91321962709473  0.07099047551369
6   -1.32678498134125  0.43920862481530  -0.10074367316479
1   -0.34910826208577  2.38880354691506  0.24910516931852
1   -2.28494859965799  0.80110131549500  -0.26422154891552
1   -1.93445481747035  -1.59614198973156  -0.23868502623966
1   0.30103334570586  -2.40800697194510  0.12796673031681
1   2.22250425924287  -0.96513466565387  -0.23208114281880
1   1.63782841379903  1.76235161128970  -0.22637976362351





