%nproc=4
%Mem=2Gb
# TD=(NStates=1) B3LYP/6-31G(d,p)  

ABSSPCT

0 1
6   -0.28389501206284  1.38823619810235  -0.02468113777420
6   0.99726455263002  0.88736079936015  -0.02771074058276
6   1.40497633545827  -0.52306345198738  0.03417860673740
6   0.26640409766662  -1.34680815982659  0.00117668473963
6   -1.05232239673452  -0.89568706825607  -0.02730940444142
6   -1.32667431167572  0.50980480446359  0.04782288014884
1   -0.42011677178450  2.34319275102387  -0.05680859494842
1   -2.48248422266756  0.82596393773177  0.07778111206202
1   -1.74731698000015  -1.64795579840155  -0.02018913824235
1   0.40678503703185  -2.41641747841288  -0.16355782388380
1   2.29757664591291  -0.86993262418929  0.10158650126052
1   1.81863832407401  1.52385456581094  0.04246915332456





