%nproc=4
%Mem=2Gb
# TD=(NStates=1) B3LYP/6-31G(d,p)  

ABSSPCT

0 1
6   -0.25930749566039  1.31911589418994  0.05769448688298
6   1.09256958920978  0.91396074232718  -0.04147312339534
6   1.33041858552325  -0.47952134788244  0.02680548698372
6   0.28670903523112  -1.31379223329376  -0.09125701804220
6   -1.08535547346165  -0.89330475235212  0.04843470196854
6   -1.34993355471254  0.44439793518086  -0.02584784007052
1   -0.39735142765499  2.50650704419562  -0.22843497391209
1   -2.31604112788825  0.93551100997757  0.07092045860929
1   -1.92568365339666  -1.56233911867777  0.04808604524192
1   0.53971804312648  -2.37980885660597  0.05642308774364
1   2.22356158322571  -0.95820899347546  0.42253890111226
1   1.71995210552312  1.59448026986906  -0.05644579712871





