%nproc=4
%Mem=2Gb
# TD=(NStates=1) B3LYP/6-31G(d,p)  

ABSSPCT

0 1
6   -0.29252311836189  1.40405193064126  -0.00815337493706
6   1.09414292700358  0.91039093315357  -0.00611191844101
6   1.30963758603572  -0.47199494498186  -0.04355303300601
6   0.26096359196773  -1.39866702913683  0.09877424812924
6   -1.06412348996999  -0.89732241581283  -0.01522114922652
6   -1.31176734355299  0.48013110833237  -0.00683182094340
1   -0.54252336411348  2.38732009455111  0.19391487158850
1   -2.41022741247458  0.80155676348098  -0.00916858846409
1   -1.90489766942638  -1.56934677701874  -0.27683479524684
1   0.64324628866799  -2.56712859405141  -0.05191372537494
1   2.32199687031733  -0.95529171849438  -0.23384023197666
1   1.88475196965216  1.64710255728793  0.11144219131457





