%nproc=4
%Mem=2Gb
# TD=(NStates=1) B3LYP/6-31G(d,p)  

ABSSPCT

0 1
6   -0.25829855159888  1.36039481769457  0.01070337370781
6   1.04124465376489  0.90999175113172  -0.05859217691001
6   1.34072174175763  -0.51649515844859  0.01799606044601
6   0.25732097958095  -1.34303950412716  -0.02600762670795
6   -1.04833786461254  -0.89175907477867  0.01889220893900
6   -1.31785759535211  0.47122398604816  0.07092853442734
1   -0.47325468653887  2.40675890364978  -0.14095179886063
1   -2.29990901038940  0.91859852930685  -0.27894222285991
1   -1.99512475158867  -1.52384763582111  -0.23355354581495
1   0.60459589386341  -2.51600215011547  -0.08761252985142
1   2.31787717643744  -0.90197610511753  0.24889254396604
1   1.66400102360277  1.82520941772577  0.06945452828013





