%nproc=4
%Mem=2Gb
# TD=(NStates=1) B3LYP/6-31G(d,p)  

ABSSPCT

0 1
6   -0.26130505111359  1.39535359760035  -0.03155290568984
6   1.03643045679761  0.93504379521491  0.00924135023737
6   1.27484857471792  -0.48415941597226  0.01801324587383
6   0.25727053183037  -1.43469362079922  -0.05036550928649
6   -0.97357110826667  -0.88415032803650  -0.05220652109770
6   -1.32139529909597  0.43262820934087  0.05328283399847
1   -0.33305841468392  2.48025998039085  0.01269932287496
1   -2.24347930449923  0.95387534614283  0.11755299101814
1   -1.89007883221487  -1.50338440813625  0.21396570399991
1   0.29104448805859  -2.43544120787020  0.27128132620315
1   2.15049294965014  -0.71868777168556  0.22199226755456
1   1.89375441168196  1.66428948641229  -0.04730525451624





