%nproc=4
%Mem=2Gb
# TD=(NStates=1) B3LYP/6-31G(d,p)  

ABSSPCT

0 1
6   -0.21216381051924  1.29782479490346  -0.07289998163871
6   1.06973394689205  0.92665760749748  0.00219039431752
6   1.31530607743487  -0.49085531988890  0.01429823797882
6   0.25555327527430  -1.30529590728476  0.01255713247592
6   -1.05966830745375  -0.86632747407739  -0.05824458233949
6   -1.35217213099404  0.44790540512831  0.07919695230565
1   -0.65078717263362  2.29676823672225  -0.08146168659195
1   -2.29160870534090  0.82424503652497  0.29280391710973
1   -1.80585443789705  -1.66957714856685  -0.05879027617573
1   0.36344186147319  -2.37353675123363  -0.06801671216705
1   2.29374176347272  -0.80025760184441  0.14201151501292
1   1.87628974134840  1.57630674921044  0.11718028649885





