%nproc=4
%Mem=2Gb
# TD=(NStates=1) B3LYP/6-31G(d,p)  

ABSSPCT

0 1
6   -0.27581830098655  1.31302695635655  -0.05115405786648
6   1.04888241645027  0.88457754362031  -0.00301398304655
6   1.36199803686759  -0.45547919398785  0.02290593216411
6   0.24281256579321  -1.35686112759764  -0.01105219908028
6   -1.01276813447964  -0.81504252086930  -0.00090092640584
6   -1.38488995946410  0.43637599516159  0.00481168634695
1   -0.44293293964720  2.40486089204111  0.12349992374700
1   -2.24775987196611  0.87464241515082  0.18708009072953
1   -1.65201443664351  -1.55728086000899  0.11155872415423
1   0.20373776200277  -2.46718814481075  -0.07296998731279
1   2.49532914155320  -0.89152390049640  -0.00186570648119
1   1.87288042277215  1.51367494840592  0.19218173348470





