%nproc=4
%Mem=2Gb
# TD=(NStates=1) B3LYP/6-31G(d,p)  

ABSSPCT

0 1
6   -0.23816446629129  1.39610589262699  -0.00008470730257
6   1.01672362436120  0.90466577670898  -0.05086532695781
6   1.27635520626494  -0.47523717688123  0.03365914689338
6   0.24848241662034  -1.36183088414979  -0.04412188374320
6   -1.02737731292289  -0.92656709726644  0.03816446064593
6   -1.29418940884374  0.46086709181574  -0.00347271387193
1   -0.42549774094550  2.48068674490935  0.20015185322393
1   -2.23629183434597  0.74544369549223  0.01378966064526
1   -1.89025711775573  -1.50389129124289  -0.09642794546728
1   0.50265704044248  -2.42981572716587  0.03313711415263
1   2.38274632853432  -0.92329531465650  0.22062475061917
1   1.90002716878760  1.67954519434070  0.02339365239658





