%nproc=4
%Mem=2Gb
# TD=(NStates=1) B3LYP/6-31G(d,p)  

ABSSPCT

0 1
6   -0.25014916163446  1.32332527785707  -0.00279042245346
6   1.02830688289025  0.88396849627964  0.01655373348570
6   1.31116641145727  -0.43623461528157  -0.00032929658574
6   0.25068145035948  -1.36447622180655  0.04050429974866
6   -1.03116642043789  -0.89880760419537  -0.00362381448591
6   -1.31826208667172  0.50639976487192  -0.01503288391327
1   -0.45488995940175  2.27043725224637  0.01527040698970
1   -2.35962069979358  0.80476037471436  -0.00229913758391
1   -1.90422187467551  -1.62753166061626  -0.03625354090933
1   0.36053082888132  -2.48225317049457  -0.21443007393881
1   2.40733132572074  -0.72749623035090  -0.15446352821880
1   2.04189861563176  1.58868732761173  -0.11099811105238





