%nproc=4
%Mem=2Gb
# TD=(NStates=1) B3LYP/6-31G(d,p)  

ABSSPCT

0 1
6   -0.26422000298760  1.40548807189056  -0.02409843259269
6   1.03659334066736  0.88960816530014  0.05142074192749
6   1.33165964091697  -0.48637119641581  -0.01782703918793
6   0.27408018936156  -1.41802108368808  -0.00758031675157
6   -1.06377789035062  -0.87200182221455  0.02208339018769
6   -1.30424606946760  0.47156394839467  -0.00643754776378
1   -0.46356888049388  2.51784099806059  -0.14058391580161
1   -2.34120822049078  0.73755741295120  0.00157716604219
1   -1.93144400605273  -1.62115493512149  -0.06275997054934
1   0.38464102841828  -2.52857795905539  0.12926010415408
1   2.41594701209242  -0.67174670350931  -0.30027681913392
1   1.82775767346929  1.69244908954236  0.12574832238133





