%nproc=4
%Mem=2Gb
# TD=(NStates=1) B3LYP/6-31G(d,p)  

ABSSPCT

0 1
6   -0.25445665591581  1.39195138151114  0.03931152574891
6   1.01911086607515  0.91974441313544  -0.04889717577076
6   1.33541574272757  -0.49237253043349  -0.02595231371314
6   0.26959196197118  -1.40840920782850  0.00747126775110
6   -1.05636641008807  -0.88093545930950  -0.00830105900891
6   -1.31780256055077  0.46884588008570  0.01328569549063
1   -0.41000651057204  2.36715070638426  0.14228904948536
1   -2.16509271960162  0.93309326064230  -0.31211403358005
1   -1.79832984382536  -1.63655549274869  0.07958853009561
1   0.32243057945869  -2.51302551652931  0.15710276717191
1   2.46308303771054  -0.90330867222258  0.13667185447804
1   1.65218341583949  1.81350884881182  0.14163450391849





