%nproc=4
%Mem=2Gb
# TD=(NStates=1) B3LYP/6-31G(d,p)  

ABSSPCT

0 1
6   -0.23381456848143  1.42338667151887  0.02456803596689
6   1.07889069277897  0.88134613424548  -0.07408698793717
6   1.31959905797928  -0.52399286577883  0.07718081711737
6   0.27414816967921  -1.35537944073941  0.00311799803307
6   -1.04578360304333  -0.88069044218946  0.00129170841913
6   -1.35440709618444  0.41857071110250  -0.00790993365905
1   -0.53946874414445  2.43309917863999  -0.07818185975758
1   -2.46715764926612  0.86802960401560  0.13892790775276
1   -1.87950475289966  -1.58291371806607  -0.04268524328159
1   0.34225435671007  -2.35360553900794  -0.37172669047426
1   2.37568305433047  -0.63383313404827  0.01008104514789
1   1.72347722497724  1.67978178826464  0.01643207601869





