%nproc=4
%Mem=2Gb
# TD=(NStates=1) B3LYP/6-31G(d,p)  

ABSSPCT

0 1
6   -0.27478752164759  1.37107714738575  0.01216949828289
6   1.06415055756856  0.90219046955967  -0.01482559508917
6   1.34710374403714  -0.50525785718309  0.03018886594454
6   0.24607654022762  -1.32796322337750  -0.04869781373120
6   -1.07196700734743  -0.90050573577043  0.05932950734079
6   -1.33280714282403  0.46139417969147  -0.05709161172193
1   -0.42420676098022  2.37969185595174  0.05904474200592
1   -2.18703382063401  0.77482619846038  0.06155311695327
1   -1.82901122200983  -1.54033852964512  0.18416025400580
1   0.48258169126663  -2.56452130430401  -0.25436636068994
1   2.30388814426298  -0.74912381183366  0.20073181673933
1   1.88008290810228  1.71106427416986  -0.04103468563040





