%nproc=4
%Mem=2Gb
# TD=(NStates=1) B3LYP/6-31G(d,p)  

ABSSPCT

0 1
6   -0.26525403738490  1.40508599772786  -0.01045160625095
6   1.05300949534405  0.92510240952869  0.00114257865264
6   1.30960223814376  -0.46762770805155  0.03813990317879
6   0.27003723459423  -1.38001879965233  -0.01475591376318
6   -1.05184866227387  -0.92484182922518  0.01403048705990
6   -1.29278879122597  0.46391968801264  -0.01765587080999
1   -0.43194056395919  2.46150661568475  0.06530708437042
1   -2.31177298731989  0.82657896624057  0.07536576679051
1   -1.90063660098671  -1.66431217900157  0.01716646793091
1   0.18052893569720  -2.57370368528038  -0.10766906558443
1   2.39692236657630  -0.97266513132219  -0.08926981939183
1   1.77875312977991  1.71350059146782  -0.09458406318821





