%nproc=4
%Mem=2Gb
# TD=(NStates=1) B3LYP/6-31G(d,p)  

ABSSPCT

0 1
6   -0.24645846966017  1.34375550575829  0.04599036673411
6   1.04160706925406  0.93620309449938  -0.08624713783736
6   1.28342606509087  -0.46895334866790  0.03573462752372
6   0.24896714278273  -1.37298463362356  0.05795742081855
6   -1.04014001518617  -0.92940581775440  -0.04906502677271
6   -1.27584469712650  0.45523625385270  0.02248895298857
1   -0.52305508243011  2.45287117952353  -0.02871293387559
1   -2.10154534714530  1.02011816559180  -0.04026684164562
1   -1.95928400088641  -1.45081855600599  -0.09900101887496
1   0.40560301514182  -2.51998354453090  -0.17379274490111
1   2.31329325506016  -0.68338692657107  -0.06581201013623
1   1.76698246533447  1.61523618995988  0.07328830595673





