%nproc=4
%Mem=2Gb
# TD=(NStates=1) B3LYP/6-31G(d,p)  

ABSSPCT

0 1
6   -0.30876980370607  1.41632816821638  0.03851763499816
6   1.04612981881634  0.85411818169119  -0.03356567039590
6   1.35823501482125  -0.49988736764719  -0.03856245900821
6   0.26708515221120  -1.38947277325051  0.04434794900913
6   -1.03239550274219  -0.88315707420688  -0.05798787873953
6   -1.32117004319548  0.49582616144747  -0.00571794696936
1   -0.34457704521166  2.49462711261519  0.06998573102730
1   -2.36919834796688  0.81230768051594  0.01550815255654
1   -1.84305585399175  -1.61392424313021  0.24734603320881
1   0.38904210015093  -2.61221052277993  0.04898457135953
1   2.32504580050036  -0.70728931523849  0.21529771738186
1   1.71116925280081  1.73848901102212  0.10413978095737





