%nproc=4
%Mem=2Gb
# TD=(NStates=1) B3LYP/6-31G(d,p)  

ABSSPCT

0 1
6   -0.24740465853307  1.43504977005253  0.01762594773051
6   1.06161478309829  0.89010513943915  -0.05907797290666
6   1.33355135757560  -0.45559739338760  0.02790876299594
6   0.23799270165208  -1.41194555266944  -0.01547567072106
6   -1.05974930011075  -0.92498441671235  0.02831780472876
6   -1.31286028190312  0.47681768819812  -0.00037406571418
1   -0.36787394134926  2.42750523736658  0.02437591587894
1   -2.40330824458799  0.56038783431060  -0.10853043385863
1   -2.00866105399794  -1.59343481618229  -0.00840434849523
1   0.37749091281859  -2.41357858560973  -0.13568881733367
1   2.43033632451930  -0.74537628868193  0.07661545288347
1   1.82310206343388  1.71751743509506  0.17809913936162





