%nproc=4
%Mem=2Gb
# TD=(NStates=1) B3LYP/6-31G(d,p)  

ABSSPCT

0 1
6   -0.27120909319741  1.28914616206359  0.00953076635305
6   1.06512615125736  0.91295335130524  0.07654246333637
6   1.34236908504695  -0.46096661534882  -0.11261911192657
6   0.25266014783907  -1.36748250829585  0.03836677380204
6   -1.02254028381289  -0.90882357983114  0.03966904967813
6   -1.35617558253170  0.51804668079242  -0.04849965579276
1   -0.60768185097341  2.38690825286319  -0.19373166150699
1   -2.38812148471006  1.00121125837367  -0.01226362836857
1   -1.79643299280738  -1.47344980294176  -0.08013560009049
1   0.27873316776339  -2.53981714281345  0.03903718438032
1   2.47568744519143  -0.92595771662236  -0.01343624689739
1   1.91937103082116  1.74996478012103  0.09689610551739





