%nproc=4
%Mem=2Gb
# TD=(NStates=1) B3LYP/6-31G(d,p)  

ABSSPCT

0 1
6   -0.28640019127672  1.35513452760296  0.01206359808482
6   1.05994154675360  0.94353467618656  -0.01987304046962
6   1.23637116674685  -0.42695824814779  -0.01854167752381
6   0.24950298104189  -1.44487387462586  0.02221443883253
6   -1.03337219722288  -0.87781738151938  -0.03185379856872
6   -1.23828728628419  0.46185789583414  -0.00820967499304
1   -0.33075803998046  2.46410045344078  -0.05605762190062
1   -2.24675288281291  0.81657029672996  0.23642857350029
1   -1.95265574563580  -1.57787842004237  0.02654626540053
1   0.59490642378708  -2.51006676163941  0.12305811915840
1   2.23203862657040  -0.87395273787709  0.05871342210908
1   1.84800426127167  1.60321215983059  0.19393904209167





