%nproc=4
%Mem=2Gb
# TD=(NStates=1) B3LYP/6-31G(d,p)  

ABSSPCT

0 1
6   -0.28294143832691  1.39444351817175  0.04495697527084
6   1.03311274651488  0.93849558393595  -0.01561981512779
6   1.36422382366559  -0.54799352210535  0.01663825496366
6   0.24724933267466  -1.39890680684337  -0.01251547976488
6   -1.01026510342244  -0.85638974976222  -0.00428568196142
6   -1.34622433267347  0.48144563723986  -0.01534025326929
1   -0.62052185538383  2.57227170300196  -0.21769841833100
1   -2.52810074720990  0.69382012282316  0.07718461639994
1   -1.72075662397744  -1.53625202229738  0.03609058327092
1   0.39807392500786  -2.50327576354419  -0.10830746167262
1   2.45581303015567  -0.95148823008533  0.13990098551568
1   1.91599865969684  1.56588320310386  -0.15267062980713





