%nproc=4
%Mem=2Gb
# TD=(NStates=1) B3LYP/6-31G(d,p)  

ABSSPCT

0 1
6   -0.25617299625236  1.32810412412154  0.01572368585650
6   1.15533152989355  0.97363587669298  -0.04924335699353
6   1.30540247023322  -0.49036389489737  0.03987723626471
6   0.22363584546440  -1.28975975448833  -0.02724269902183
6   -1.12444602629533  -0.91956584133300  0.02643175791502
6   -1.30818551906605  0.42341943920184  -0.01131620534353
1   -0.49054437558875  2.33802718508196  0.13426277952977
1   -2.35062685256719  0.69928644647592  -0.07056813440858
1   -1.94713802122386  -1.69904992353798  0.03399985909152
1   0.61594534309314  -2.34834208832347  -0.11570270452143
1   2.22963189361712  -0.92624056177440  0.12175048362627
1   1.94607328980939  1.66324481740909  -0.00580992053864





