%nproc=4
%Mem=2Gb
# TD=(NStates=1) B3LYP/6-31G(d,p)  

ABSSPCT

0 1
6   -0.25355092615196  1.38633653511969  -0.04992738224538
6   1.10187367255670  0.90307072364907  -0.04918648163480
6   1.36292081294068  -0.46580979881531  0.04783462171780
6   0.27402271822505  -1.35013666455211  -0.03882346805381
6   -1.08499419589435  -0.90230067351338  0.01272298888775
6   -1.38385966209734  0.43231165634694  0.06469396443341
1   -0.42079206823663  2.35148776914129  0.19960766263156
1   -2.24411900716150  0.88538019396607  0.05304753308626
1   -2.08221448004605  -1.63697240306019  -0.24331640134627
1   0.38956427923174  -2.38657550644384  -0.07485891715341
1   2.31344936737577  -0.88650508734205  0.35650491296120
1   1.85690819081942  1.67622531649967  -0.05163772179217





