%nproc=4
%Mem=2Gb
# TD=(NStates=1) B3LYP/6-31G(d,p)  

ABSSPCT

0 1
6   -0.26643581256303  1.32452223000031  0.02065146487125
6   1.09311104567403  0.89456874772668  -0.01315509659279
6   1.35131827999337  -0.46062275513770  -0.02170752096388
6   0.24037149799885  -1.35031783906137  0.01730503566277
6   -1.05512861993252  -0.87992347832469  -0.00211299313255
6   -1.37962235164846  0.43948903385550  -0.02461889217616
1   -0.26520412940090  2.50385286995901  0.05477431774646
1   -2.39341819239193  0.99526735999668  -0.08773515230412
1   -1.89553109426723  -1.59018771072494  0.17402784609144
1   0.52790963008992  -2.49666521661648  0.03080188016811
1   2.33610121809346  -0.73202106109482  -0.06182859758830
1   1.89512584410341  1.68556132080160  0.19920865348298





