%nproc=4
%Mem=2Gb
# TD=(NStates=1) B3LYP/6-31G(d,p)  

ABSSPCT

0 1
6   -0.23265294692907  1.38026819118958  -0.01487234350607
6   1.04297444732925  0.88220594288825  0.04562711167085
6   1.31196958434275  -0.48210192308134  0.01148427043640
6   0.27564303409960  -1.39508356422233  -0.03765061862112
6   -1.04043738505827  -0.91184107869954  0.02579614392380
6   -1.37113548290922  0.52037835692679  -0.02611572278068
1   -0.45575391548105  2.53968019206125  -0.09627412709723
1   -2.41866130239969  0.88654063026556  0.06477696932102
1   -1.74027733682022  -1.74838654485202  0.11240341346573
1   0.61987341173283  -2.38137540371523  0.03110119755665
1   2.38882302768621  -0.80120265028427  -0.15444957746439
1   1.81212807722893  1.52922182498269  -0.03084320415850





