%nproc=4
%Mem=2Gb
# TD=(NStates=1) B3LYP/6-31G(d,p)  

ABSSPCT

0 1
6   -0.23028560252708  1.34377289174794  0.02022506943842
6   1.05260329392339  0.93783175630912  -0.03785250395873
6   1.24586315785436  -0.45481518999351  -0.00793461260930
6   0.23595999273198  -1.41174197210887  0.03563665605280
6   -1.02857819658439  -0.88344590533503  -0.01694949543375
6   -1.29330130988149  0.46947120508889  0.03065834496835
1   -0.42622632321379  2.43024340823102  -0.01633137703332
1   -2.35084265095563  0.72584292717012  -0.18016187736264
1   -1.84075525784875  -1.70774651397611  -0.12422538223215
1   0.48634711687277  -2.43775865283449  -0.05721408353277
1   2.30495267978168  -0.68569795672774  0.00796284384082
1   2.03501536055054  1.62188614369956  0.06423580396201





