%nproc=4
%Mem=2Gb
# TD=(NStates=1) B3LYP/6-31G(d,p)  

ABSSPCT

0 1
6   -0.28508023310204  1.37143503712001  0.01700755690742
6   1.10386187722129  0.96619563041779  -0.04234137345815
6   1.31400792872811  -0.48499448542706  0.00212260523162
6   0.21301608828802  -1.38438720087585  0.01837883033880
6   -1.07650303569576  -0.89891263419590  -0.00138258967196
6   -1.29012765052116  0.46929029161613  0.02222075936163
1   -0.44451706897447  2.26914487464181  -0.01549848371930
1   -2.25055313852917  0.71822918769523  -0.15381971407305
1   -1.75820062141695  -1.74848670653478  -0.13890352764790
1   0.52101229212751  -2.43232282577489  0.02640043396116
1   2.25420529418233  -0.91334136624828  -0.07830656616795
1   1.85919095246250  1.67758925083420  0.17135126318983





