%nproc=4
%Mem=2Gb
# TD=(NStates=1) B3LYP/6-31G(d,p)  

ABSSPCT

0 1
6   -0.21846737068756  1.35017225700975  -0.01178231557045
6   1.03179382466512  0.86848442714282  -0.03317870111901
6   1.25261148952517  -0.46348044340495  0.02958026639762
6   0.28284308764291  -1.28999709134909  -0.03440361579357
6   -1.04462329229612  -0.95428226232317  -0.01936351451977
6   -1.31373392997936  0.49143013860904  0.01670857541709
1   -0.49655812475843  2.30332878935218  0.20850198330787
1   -2.34945200837772  0.94733835428566  0.18807397107677
1   -1.78208443600388  -1.71545793957708  -0.03243160470606
1   0.44727923325704  -2.30500446119551  0.24273763107289
1   2.36176722013551  -0.95415936744406  0.21861210750819
1   1.94367596440405  1.66340992830437  -0.05570371908315





