%nproc=4
%Mem=2Gb
# TD=(NStates=1) B3LYP/6-31G(d,p)  

ABSSPCT

0 1
6   -0.26671778683246  1.33573638081284  -0.00709415866340
6   1.04242639724729  0.90059460155725  -0.05204905666613
6   1.41094350677842  -0.47851831507658  0.08891556718787
6   0.24604092389763  -1.34175294122707  -0.03454386027719
6   -1.07102007652526  -0.87146128696696  -0.03464535007684
6   -1.37589064127563  0.47412992917984  0.04652587560458
1   -0.43327567528898  2.36573587716677  -0.01175253556170
1   -2.37134898289068  0.87569401088093  0.20570260045585
1   -1.85336456710430  -1.67355871615801  -0.11499802739522
1   0.60326279558647  -2.25623315175228  -0.03600504706940
1   2.30709727839199  -0.93697604188452  0.13348091093431
1   1.90707558817076  1.37621715591190  -0.20164562162490





