%nproc=4
%Mem=2Gb
# TD=(NStates=1) B3LYP/6-31G(d,p)  

ABSSPCT

0 1
6   -0.24905195155501  1.41639411220761  0.02576151540547
6   1.00444408309062  0.85997262617064  -0.05665008274615
6   1.31292168923738  -0.46662662971602  -0.03504644180986
6   0.28903283664476  -1.42136966494437  0.03011618124565
6   -1.00842229072403  -0.88681774582372  0.00542722927784
6   -1.30864736834367  0.48133459286530  -0.03362984301171
1   -0.56503404672462  2.58628754970795  0.41415189148793
1   -2.30450479185693  0.82050310840986  -0.05898804331558
1   -1.91816645442382  -1.58466195244660  0.03532100762929
1   0.23722594703904  -2.44803463027473  0.10696813025182
1   2.37149281662991  -0.83839824919808  0.22113570593284
1   1.75267609681224  1.67015785592540  0.15327103429332





