%nproc=4
%Mem=2Gb
# TD=(NStates=1) B3LYP/6-31G(d,p)  

ABSSPCT

0 1
6   -0.25221747255656  1.34110294862459  0.01764947042141
6   1.08602521720114  0.95640393916070  0.03487440441297
6   1.33473168486169  -0.46903697906528  -0.08591807933175
6   0.23488934337817  -1.35078669406900  0.01673034731957
6   -1.09966055694898  -0.94094945683414  0.02882232086942
6   -1.31957349055138  0.49372329099715  -0.01312294063946
1   -0.40898646837037  2.46066706860286  -0.16341565867683
1   -2.55292475556880  0.68781376167072  -0.30177129836378
1   -1.81241578203511  -1.77568397340726  0.10888699134265
1   0.44241127391591  -2.37218623082210  0.07564787273417
1   2.46133747420627  -0.89609062154346  -0.05814451272901
1   2.03598732966537  1.49446564256721  0.29429789826808





