%nproc=4
%Mem=2Gb
# TD=(NStates=1) B3LYP/6-31G(d,p)  

ABSSPCT

0 1
6   -0.22485427485462  1.37632898818426  0.05223462630439
6   1.09938255046771  0.93733670346846  -0.02788904277484
6   1.32423766208101  -0.42322379806402  -0.03087073654253
6   0.26172574863510  -1.37313045599658  0.03724992484757
6   -1.09545385282482  -0.93059931378533  -0.01138395779287
6   -1.32922866137374  0.43141140252079  -0.07093239781548
1   -0.53922491666174  2.41699393091110  0.11895200092705
1   -2.26931727701789  0.71051454709408  0.08859833445930
1   -2.04675014300390  -1.50229465647286  0.26223254554750
1   0.31378622966215  -2.43851566527338  -0.02578771356472
1   2.22568535403878  -0.88868135077961  0.06923157170671
1   1.88855937294285  1.53283172958316  0.13030259367174





