%nproc=4
%Mem=2Gb
# TD=(NStates=1) B3LYP/6-31G(d,p)  

ABSSPCT

0 1
6   -0.28906161721770  1.39103704568352  -0.01966140869628
6   1.05728400543734  0.88448429351459  0.02389603256543
6   1.30774638771819  -0.45289717707778  -0.01437554044677
6   0.23597939466584  -1.34858607296164  -0.04077787357102
6   -1.04185858171407  -0.84468638034341  0.03047592723662
6   -1.27276125702003  0.40832342264549  0.00470452883961
1   -0.29484607256450  2.47507065565111  0.00813104220574
1   -2.41045952631808  0.68750678514855  -0.08851165820732
1   -1.95035063705620  -1.58239348808636  0.15664227556577
1   0.52735138346287  -2.57733895068266  -0.12542932815000
1   2.33707925839497  -0.93427402146852  0.30952988710750
1   1.76583374374674  1.57183998403605  -0.07481652571726





