%nproc=4
%Mem=2Gb
# TD=(NStates=1) B3LYP/6-31G(d,p)  

ABSSPCT

0 1
6   -0.22476121639159  1.35406921266192  0.03777133066672
6   1.02497903370996  0.89224097894564  0.01779077232174
6   1.31082105077770  -0.49546259503432  -0.04376599336676
6   0.26315751698717  -1.36159468923046  0.03622763264552
6   -1.03081907257232  -0.86392091767636  0.01592781856409
6   -1.33740585860359  0.49122035829611  -0.01605578039947
1   -0.51927945959459  2.41844302864710  -0.08293663616389
1   -2.44078247004458  0.69043310118350  -0.30503077356957
1   -1.77738441408261  -1.65576180701856  -0.04877264231839
1   0.45815500758724  -2.45720358920622  -0.06355199841360
1   2.40069335626857  -0.78099075907454  -0.13278142351477
1   1.79671007147746  1.59450313402771  -0.05477313650736





