%nproc=4
%Mem=2Gb
# TD=(NStates=1) B3LYP/6-31G(d,p)  

ABSSPCT

0 1
6   -0.22349866601230  1.35302638155347  0.01286596290455
6   1.09261815556443  0.88448247698393  -0.06964747968620
6   1.24466831440086  -0.42487184258317  0.03026467676729
6   0.25420343455190  -1.39230477728893  0.05985495234052
6   -1.05230915331393  -0.87004893101477  -0.03370354398916
6   -1.31059139014042  0.45191242242670  0.00909904456331
1   -0.56711257180913  2.46566373921586  0.10873071617761
1   -2.31468078043468  0.63320008073534  0.15968860467614
1   -1.95262774538423  -1.64344754474116  -0.16903334644392
1   0.47941462211840  -2.46754304544686  -0.28941850330185
1   2.35055532773489  -0.47058905875682  0.10250987775461
1   1.96820899906082  1.41892886812244  -0.02850866265423





