%nproc=4
%Mem=2Gb
# TD=(NStates=1) B3LYP/6-31G(d,p)  

ABSSPCT

0 1
6   -0.29106787804864  1.37931760888339  0.08135634077320
6   1.00169003257936  0.89209609770998  -0.05912080927805
6   1.31714644594701  -0.49078640071841  0.01247754329559
6   0.24769585118426  -1.32824110145692  -0.01326750315791
6   -1.00980954519519  -0.90678164729167  0.01603803562217
6   -1.29878556414830  0.42825879791111  -0.04121705851256
1   -0.23366115104245  2.46832255475314  -0.02938054147166
1   -2.12764664995609  1.02626179273364  -0.05509418207644
1   -1.82453626129655  -1.59205242662199  -0.02292864015698
1   0.26959593354188  -2.36691646565557  0.08240226988144
1   2.46226954933352  -0.70613967666599  0.10297652516113
1   1.88179405083889  1.40107759508766  -0.04064730562736





