%nproc=4
%Mem=2Gb
# TD=(NStates=1) B3LYP/6-31G(d,p)  

ABSSPCT

0 1
6   -0.26140587166720  1.31245802432832  -0.01059242771345
6   1.09711998522774  0.92809786249098  -0.00094477119477
6   1.28305861204045  -0.41651423494192  -0.04902146870980
6   0.27203940542419  -1.40652373392201  0.07937459581580
6   -1.06043392895975  -0.85345955062351  -0.06764118031377
6   -1.33511384499336  0.45847020108825  -0.00207156436888
1   -0.47005773961607  2.31722587947705  0.32598865869920
1   -2.46400630641614  0.83941740629876  0.22491900323436
1   -1.75422585463701  -1.62950081204561  -0.14549097913452
1   0.42562487580765  -2.39441539316763  0.36564283715043
1   2.25896012789768  -0.96368826274839  -0.09868695801863
1   2.02503215651248  1.53698541262655  0.04825524603700





