%nproc=4
%Mem=2Gb
# TD=(NStates=1) B3LYP/6-31G(d,p)  

ABSSPCT

0 1
6   -0.23972880342077  1.34717834857390  -0.03958987730272
6   1.05958648059746  0.94171964248254  0.03024853995786
6   1.37671970573582  -0.44422236321759  0.02501258125434
6   0.24815092282284  -1.35245060759707  -0.02944361539652
6   -1.08829241109214  -0.92756531023108  -0.00506081323254
6   -1.32054551715892  0.44300923975211  0.04997908340292
1   -0.32407665602427  2.30011929338200  -0.13413650974595
1   -2.38720813640485  0.95599439996489  -0.01526427035210
1   -2.15465391086020  -1.52794736088543  -0.04654921945621
1   0.42541056369377  -2.40107348189085  -0.07754221923254
1   2.29687903507035  -1.01976645965168  0.02799549328454
1   1.70833804616979  1.72194881884577  -0.15267511856332





