%nproc=4
%Mem=2Gb
# TD=(NStates=1) B3LYP/6-31G(d,p)  

ABSSPCT

0 1
6   -0.30099795417878  1.38047267010832  -0.01597403738205
6   1.08336035387269  0.91494585611758  -0.00364792986294
6   1.23583658208585  -0.46038359824823  0.04747311497420
6   0.28868356918311  -1.41663261890684  0.01702410905447
6   -1.03687660564550  -0.85060038003212  -0.05091701389838
6   -1.28238305927259  0.42684096825759  0.02566935487076
1   -0.31922438844568  2.46609371916878  0.30431601870335
1   -2.24013718571707  0.89248289574732  -0.04881293055055
1   -1.93447296369212  -1.60816856846461  0.02083444721064
1   0.49854665397321  -2.49196161402274  0.00841370139300
1   2.26886894776180  -0.84392374286615  -0.10946050228532
1   1.87662756064310  1.66664603874869  -0.35956850724205





