%nproc=4
%Mem=2Gb
# TD=(NStates=1) B3LYP/6-31G(d,p)  

ABSSPCT

0 1
6   -0.26300613945694  1.35797394480766  -0.06368242788419
6   1.08715185947929  0.89380634783140  0.00955306817466
6   1.40489670219484  -0.46863720756324  0.03535262685140
6   0.28721500569941  -1.40202392086040  -0.07029938171823
6   -1.12671070445516  -0.90380667041911  0.04399326483804
6   -1.38781969428811  0.50316676564755  0.06183675973858
1   -0.44813644325127  2.59821492688249  -0.15762576164250
1   -2.38619249597220  0.85596355701574  -0.07499441380710
1   -1.92586240429873  -1.71413971648837  -0.07626914836280
1   0.38987550825381  -2.50773538158343  -0.12156064058591
1   2.49554638399039  -0.72693392008980  0.10203102794985
1   1.90192026675395  1.70003280113014  0.13362376591768





