%nproc=4
%Mem=2Gb
# TD=(NStates=1) B3LYP/6-31G(d,p)  

ABSSPCT

0 1
6   -0.21484324724314  1.37389426900823  -0.10384188233469
6   1.01525474773813  0.85702938257401  0.06118775201077
6   1.26461801554564  -0.44463596780304  0.00754138281899
6   0.28775391812008  -1.36007437313619  -0.00668327593198
6   -1.07262307448430  -0.91813203411791  0.03847991081520
6   -1.26880683219434  0.49023270073999  0.02067627829427
1   -0.41071301732801  2.45178774782567  0.06698943726850
1   -2.46677278288272  0.91444219799943  0.15054877780421
1   -1.86969840208573  -1.76670756202324  -0.08415265427710
1   0.60984906662964  -2.43950908446885  -0.39059324379146
1   2.27647982564008  -0.74861079407339  0.05007095262939
1   1.74158579307401  1.61268718830982  -0.05534279340577





