%nproc=4
%Mem=2Gb
# TD=(NStates=1) B3LYP/6-31G(d,p)  

ABSSPCT

0 1
6   -0.25034256079821  1.34169764974748  0.01542183525131
6   1.10884848229351  0.91612185233564  -0.04622200397123
6   1.35618541506601  -0.49632478579775  0.02556763788734
6   0.24271510332005  -1.29404527622213  0.03800624569093
6   -1.11631812986500  -0.89138523128719  -0.07453707691681
6   -1.32820621292053  0.41102726795077  0.05527170553407
1   -0.60902670582471  2.37605979737043  -0.06438569100137
1   -2.50394997568247  0.95621107701987  0.10540444177807
1   -1.96099795967582  -1.69329277468560  -0.14104952666191
1   0.50635386563408  -2.43678925346384  -0.01672778898675
1   2.34742824082779  -0.75229901706887  0.10496486988150
1   2.02266996802373  1.66099784425951  -0.13091079392272





