%nproc=4
%Mem=2Gb
# TD=(NStates=1) B3LYP/6-31G(d,p)  

ABSSPCT

0 1
6   -0.25744684865887  1.30834763047782  -0.07621982007981
6   1.10185180968050  0.91912668904130  -0.03185870313603
6   1.40034172802896  -0.47787791492538  0.04876608640081
6   0.25167870681482  -1.24824241690583  -0.02129785769765
6   -1.13870210974090  -0.87711268565732  -0.00336595937835
6   -1.36020695747045  0.40745842998540  0.09508085952061
1   -0.49030525759076  2.35533769899798  0.18198389254016
1   -2.49607406394483  0.78740992498580  -0.14621399840091
1   -1.89309431108853  -1.62588414352544  -0.11661858065379
1   0.43394548071332  -2.36383071076343  -0.18201890464494
1   2.43152038910873  -1.07052768399944  0.15166223179643
1   1.98795246508833  1.54705787841005  0.05379964827479





