%nproc=4
%Mem=2Gb
# TD=(NStates=1) B3LYP/6-31G(d,p)  

ABSSPCT

0 1
6   -0.25731516658465  1.38863458171173  0.03943258517551
6   1.07188421512893  0.92850771636759  -0.05059312044604
6   1.30362842231724  -0.40819677132034  0.01293065259457
6   0.25149458501461  -1.39375866735924  -0.02160454383508
6   -1.10664539518111  -0.94551934422563  0.01038145454609
6   -1.28600844170935  0.45209626471674  0.00330937531654
1   -0.36563572622663  2.44013860545504  0.10078128305686
1   -2.30810772241462  0.83286099075716  -0.26879224850167
1   -1.84616334527050  -1.58509985063537  0.04161125927657
1   0.46068401089934  -2.48933415647873  0.15524854163089
1   2.39745312558468  -0.97839215752371  0.01285052516830
1   1.92662548479820  1.53744969623051  0.08934654046507





