%nproc=4
%Mem=2Gb
# TD=(NStates=1) B3LYP/6-31G(d,p)  

ABSSPCT

0 1
6   -0.25609391193358  1.39192693098207  0.00908614265516
6   1.02682800788463  0.91280101340506  -0.01837429364588
6   1.33227147834421  -0.47424759151316  -0.07646624151216
6   0.28524032979000  -1.36572147070181  0.10683371404188
6   -1.12166185482046  -0.95589295256607  -0.05296499549487
6   -1.27749405468167  0.47068555547627  0.05105585544892
1   -0.41132401465217  2.49921169352623  0.16676773693657
1   -2.39359361092279  1.04893684167219  -0.38321485977653
1   -1.91429884047106  -1.50808751453627  -0.10264058362748
1   0.66847555008187  -2.46199241343006  -0.02663825618274
1   2.41011993738873  -0.82979956494895  -0.00264122838992
1   1.79253137605138  1.49349335474629  0.10411723369955





