%nproc=4
%Mem=2Gb
# TD=(NStates=1) B3LYP/6-31G(d,p)  

ABSSPCT

0 1
6   -0.26993932529125  1.32677027091943  -0.03763321738473
6   1.09820363709669  0.86704771681029  0.03786116200031
6   1.34762723836365  -0.43571114829966  -0.03151073701222
6   0.22111558990265  -1.39033609285104  0.04993651753679
6   -1.01223959620481  -0.86337114277337  -0.03393260790178
6   -1.37093302399618  0.47926825029445  0.00538232604170
1   -0.60618042499297  2.29399554012171  0.34770215376912
1   -2.28931248632793  0.89559340091057  -0.03042646793852
1   -1.85284799841546  -1.61463165284006  -0.02690733586660
1   0.28612525005600  -2.34777577173621  0.16504613721030
1   2.46847382311509  -0.77529931728970  -0.18090624807309
1   1.85526804323353  1.73105643875265  -0.10244946379535





