%nproc=4
%Mem=2Gb
# TD=(NStates=1) B3LYP/6-31G(d,p)  

ABSSPCT

0 1
6   -0.20715440701985  1.33397370147134  0.01635935367955
6   1.04313850529257  0.89978963641298  -0.02424399758370
6   1.28962356453875  -0.47241111514020  0.01948847255090
6   0.25301465142344  -1.37528157287330  0.05095121985808
6   -1.03761487519986  -0.89024406488377  -0.02049169966158
6   -1.33930922665557  0.49300322196585  -0.00874726491932
1   -0.54025984803274  2.57264956547776  -0.07222700893263
1   -2.32206502607494  0.73111762758582  0.10920824796453
1   -1.88936698035753  -1.66024242218305  -0.10797095716645
1   0.55554795429977  -2.42838773207996  -0.23960587624408
1   2.39787011242029  -0.62611476996453  -0.13864682551370
1   1.83596827089691  1.51271003742621  -0.02243644963130





