%nproc=4
%Mem=2Gb
# TD=(NStates=1) B3LYP/6-31G(d,p)  

ABSSPCT

0 1
6   -0.26989182380586  1.42229127283188  0.01726911835231
6   1.05613966883249  0.89514535553367  -0.04854257406056
6   1.33570235207466  -0.47708928480401  0.01971363500859
6   0.29542096844774  -1.43400288750637  0.01165254009363
6   -1.09561914251570  -0.90959881768393  -0.04607518264034
6   -1.33314319936063  0.50819031559956  0.03762231318169
1   -0.38436389371707  2.43389617800740  0.00323489328263
1   -2.52791190177179  0.87995054409358  0.18039003787135
1   -1.71514650560149  -1.78002508161386  -0.24970722530845
1   0.48565678583333  -2.39185329845312  0.15760121198657
1   2.42704504897503  -0.83175520770118  0.18017936335018
1   1.84960495775020  1.59035088260400  -0.11837428555586





