%nproc=4
%Mem=2Gb
# TD=(NStates=1) B3LYP/6-31G(d,p)  

ABSSPCT

0 1
6   -0.26532238187039  1.39934490289489  -0.00341322383226
6   1.07629015128851  0.94158024088740  -0.01288691290634
6   1.32261545654635  -0.47474889024402  -0.02574401598265
6   0.24489206542404  -1.41061195764255  0.04366095561433
6   -1.07526782388563  -0.91519698247159  0.00455289926938
6   -1.30403062442555  0.43365531691255  -0.02012603617536
1   -0.56673178944002  2.47115796209608  0.17344606958240
1   -2.36230924520446  0.92869037634075  -0.03343587519634
1   -2.01128309250279  -1.47373743620663  -0.03576087017273
1   0.48875709478862  -2.40883270127427  0.01269007372143
1   2.55272518801930  -0.76857226451917  -0.15130407992792
1   1.93966767167557  1.54030480067608  0.22109676015715





