%nproc=4
%Mem=2Gb
# TD=(NStates=1) B3LYP/6-31G(d,p)  

ABSSPCT

0 1
6   -0.27811704742802  1.33869488681491  -0.00386797098682
6   1.09397819808941  0.88174094125749  0.02980967270273
6   1.34572993845160  -0.44398292430225  0.00608548917940
6   0.28017026072679  -1.35095079011082  -0.03104658718239
6   -1.11081912902321  -0.87570151316180  0.05197222063916
6   -1.35171515667489  0.45524281251978  -0.06639033658721
1   -0.28344623262126  2.52208112108719  0.00572455456406
1   -2.35300959588873  0.82711898760277  0.05478870440968
1   -1.92901358256041  -1.70887325525996  0.20396527075986
1   0.53287076723057  -2.51596697863658  -0.05964027397476
1   2.32150593196250  -0.82344772031593  -0.17535883878824
1   1.95663336918097  1.64155052746578  0.11210573108270





