%nproc=4
%Mem=2Gb
# TD=(NStates=1) B3LYP/6-31G(d,p)  

ABSSPCT

0 1
6   -0.30685153853233  1.38867852379966  -0.06234600012557
6   1.08334281413351  0.95924502959179  0.03298495610714
6   1.31623753896255  -0.53204926288405  0.01786297575654
6   0.22114202324691  -1.33050219906749  0.02495081808453
6   -1.07319564893197  -0.90933702983544  -0.01506939256404
6   -1.25550083702901  0.44141977539859  0.09586503948819
1   -0.42367530331611  2.45279672625532  -0.34811209179491
1   -2.37512803742234  0.66525930018200  -0.07636189685208
1   -1.85885325754001  -1.78003448169560  -0.26905304982566
1   0.39060029356983  -2.44311642398335  -0.42479322894592
1   2.27314860424369  -0.73234432142861  -0.06507956985791
1   2.09655183490779  1.57414282998742  -0.09366968292016





