%nproc=4
%Mem=2Gb
# TD=(NStates=1) B3LYP/6-31G(d,p)  

ABSSPCT

0 1
6   -0.27254186533647  1.33497972063483  0.01782356055882
6   1.10060118332103  0.95080923519636  0.04371767768177
6   1.37148656285626  -0.47627084925875  -0.00469454314350
6   0.20057722680524  -1.32007400140832  0.06006032782175
6   -1.09964891072623  -0.92143896769173  -0.01722698765338
6   -1.29480934017929  0.44338184356151  -0.02833873503479
1   -0.47610088350497  2.39133762840911  -0.12591382038826
1   -2.42200570565116  0.87690130728824  -0.09322477003786
1   -1.89479592765964  -1.82739348429064  -0.02368222145784
1   0.46569071232253  -2.20465320665521  -0.08672665306847
1   2.34517413388583  -1.02340153410248  -0.56086042624398
1   1.89983224211165  1.62978899094339  -0.09600159462516





