%nproc=4
%Mem=2Gb
# TD=(NStates=1) B3LYP/6-31G(d,p)  

ABSSPCT

0 1
6   -0.28888162821445  1.39423688379688  0.02132224778839
6   1.07509428454523  0.86164988930603  0.01841850731386
6   1.33582469637911  -0.43679038825163  -0.08891873216893
6   0.26470957776942  -1.35004079747256  0.05012080949600
6   -1.06701087389037  -0.94924375569296  0.01948099804580
6   -1.32194349662245  0.47342214280071  -0.06630147622690
1   -0.37893667559550  2.51650011336389  0.26642048665978
1   -2.36122824414940  0.90551254705266  0.02841960474589
1   -1.94303437238566  -1.53938271119347  -0.06939457055752
1   0.46022948810059  -2.54209670385511  0.23386965471546
1   2.29623657645073  -0.90652869777645  0.01703320511646
1   1.94638912828799  1.66432862867329  0.08975005912708





