%nproc=4
%Mem=2Gb
# TD=(NStates=1) B3LYP/6-31G(d,p)  

ABSSPCT

0 1
6   -0.24472621413836  1.35534763548549  -0.01707349725273
6   1.05732464614341  0.94708153082346  -0.00593868469117
6   1.36894668092387  -0.42496856042942  -0.00226024768948
6   0.27264649237474  -1.45462571639579  0.02873845396657
6   -1.08666424262885  -0.90935809509332  -0.06524992582101
6   -1.34330560979442  0.49653855562919  0.03412406781399
1   -0.32438904025346  2.63875751369338  0.07377618701665
1   -2.47115649877413  0.84894612920477  0.09211539718300
1   -1.82720974098923  -1.76554506251731  0.13566387694918
1   0.26565716615070  -2.42089598971422  0.01865900141034
1   2.34712229658414  -0.95395619803528  0.08720061413390
1   1.76358387018668  1.51637323978084  -0.00460792644519





