%nproc=4
%Mem=2Gb
# TD=(NStates=1) B3LYP/6-31G(d,p)  

ABSSPCT

0 1
6   -0.23442510066717  1.44861112321671  -0.02659615765896
6   1.04073598548546  0.88747044360599  -0.00846151272308
6   1.28034451596756  -0.44577547705706  0.05857047357823
6   0.26241887489014  -1.37981043766775  -0.07845963263455
6   -1.06659062614079  -0.94018274665056  -0.00893611418590
6   -1.28031575518240  0.42743984960884  0.06298091218145
1   -0.36361679818189  2.46492838370804  -0.01822643477806
1   -2.39554333639869  0.84392565019627  -0.14154436242280
1   -2.01423417472097  -1.50865133617816  0.05685878882135
1   0.56818061263834  -2.48544408851714  0.27902550010557
1   2.36827651628679  -0.81500555705678  -0.06474902068771
1   1.81430092390830  1.57411761970057  0.01252613721964





