%nproc=4
%Mem=2Gb
# TD=(NStates=1) B3LYP/6-31G(d,p)  

ABSSPCT

0 1
6   -0.23136428885306  1.42540154170747  -0.02488194812244
6   1.03007933077155  0.89659787600589  0.07312582072942
6   1.31279677729104  -0.48142408311270  -0.05288474002346
6   0.23247110047190  -1.34299579035844  0.02276621950695
6   -1.03811580212747  -0.95347602624576  -0.01890042107618
6   -1.34549454093720  0.45226149597963  0.00898785271789
1   -0.25281769907887  2.39223269615762  -0.15127927440032
1   -2.32079597716146  1.01994244210173  -0.07207611866591
1   -1.72644399237648  -1.75447827115458  0.17347987978428
1   0.46805377640755  -2.45491654551944  -0.01328809216195
1   2.43982066672678  -0.79095433482218  -0.11183633586096
1   1.85579336886209  1.58541800866608  0.02596194424671





