%nproc=4
%Mem=2Gb
# TD=(NStates=1) B3LYP/6-31G(d,p)  

ABSSPCT

0 1
6   -0.30284434982024  1.39518402053904  -0.00774762841766
6   1.06416334721042  0.88078419353825  0.06347401609534
6   1.30028553336466  -0.44717881715608  -0.05346378572340
6   0.25811843054288  -1.38845539022929  0.04816987242912
6   -1.01934509553057  -0.88232887933412  0.02326459363647
6   -1.29824492100473  0.42979855973507  -0.04036242701663
1   -0.38804657268604  2.44641311975175  -0.00225436675969
1   -2.16035315359087  0.92375137439283  -0.02276004281383
1   -1.95014350214242  -1.58899171539967  -0.08753276945246
1   0.36137724659671  -2.39985333826170  -0.12413463528125
1   2.20929460939596  -0.89080630297967  -0.18262368809077
1   1.91071365311419  1.65273975905699  -0.10370126801839





