%nproc=4
%Mem=2Gb
# TD=(NStates=1) B3LYP/6-31G(d,p)  

ABSSPCT

0 1
6   -0.22194387223620  1.36433694252000  0.02150828215340
6   1.08954668964474  0.91118603417117  -0.04875133864831
6   1.32633588634052  -0.43351539535638  0.02860471013984
6   0.21932922532027  -1.34427180985003  0.06610747388941
6   -1.13453587764151  -0.91487893876775  -0.07446502693171
6   -1.30970651994206  0.41096298052143  0.04489047548710
1   -0.42184796869211  2.33575903242575  0.13015440487416
1   -2.35791462687821  0.84133215172675  -0.02982454548136
1   -1.83741992322438  -1.58886184094471  -0.20800814243235
1   0.65395826654606  -2.39800089027774  -0.04504373219441
1   2.36096874997282  -0.75039110562355  -0.04194251137203
1   1.95094757526470  1.62031460077648  -0.25896382067730





