%nproc=4
%Mem=2Gb
# TD=(NStates=1) B3LYP/6-31G(d,p)  

ABSSPCT

0 1
6   -0.27621649882326  1.35547489014780  0.07224692876393
6   1.08643010984020  0.90319020777345  -0.01192076182880
6   1.29975675404949  -0.46784999614247  -0.00028751549247
6   0.31481758166628  -1.38984888193312  0.01696850476608
6   -1.07691673008634  -0.86589351042885  -0.00552383737494
6   -1.36691706582704  0.47524371597217  -0.07414192392052
1   -0.37578031153600  2.30691644444073  -0.08045231351644
1   -2.22622644836287  0.81014352910723  0.06133848800844
1   -2.04168786122576  -1.55300072531935  0.19874262081450
1   0.49969905619941  -2.55252812948528  -0.03186032651884
1   2.38251833875188  -0.84750136085431  -0.10290460908682
1   1.98104135554351  1.78321284825101  -0.06293035178068





