%nproc=4
%Mem=2Gb
# TD=(NStates=1) B3LYP/6-31G(d,p)  

ABSSPCT

0 1
6   -0.21120671419477  1.37608887591746  0.00309219730628
6   1.09097823351407  0.87507099929330  0.01037245553667
6   1.30155843548298  -0.42462230896379  0.00351422273519
6   0.26361255638963  -1.42459771583322  -0.02767566480006
6   -1.04841906415065  -0.95363055646683  0.00478563662610
6   -1.36446750627616  0.52415677474594  -0.00847499150760
1   -0.41717508581886  2.42829100383576  0.09226943606641
1   -2.43826505163083  0.65808545942034  -0.03706599713332
1   -1.95427978213981  -1.45090100028436  0.13547907622268
1   0.46304497195118  -2.38461317599968  0.01428615244853
1   2.23404634156354  -0.68639419968032  0.16797038037298
1   1.78086136380089  1.82320285832084  -0.17727190274767





