%nproc=4
%Mem=2Gb
# TD=(NStates=1) B3LYP/6-31G(d,p)  

ABSSPCT

0 1
6   -0.23680064050454  1.36249639515522  0.02805684163334
6   1.07270390108954  0.85629868137790  -0.09007880788770
6   1.37065732104455  -0.44968823734435  0.02813663880048
6   0.25113033593888  -1.32270728848823  0.01502223594830
6   -1.09871944254875  -0.92464996903130  -0.02031888148452
6   -1.33428090377214  0.50670452862729  0.01704844491273
1   -0.62645989938132  2.47036105927723  0.27310254020498
1   -2.42035919268245  0.70046419699568  0.02623166038065
1   -1.79143634046259  -1.58382732949800  -0.26567203969380
1   0.43037581403167  -2.62244512836823  0.21133402633487
1   2.46448251459044  -0.81439519715430  0.09401732084078
1   1.63393418934502  1.57219005252039  0.03502647105291





