%nproc=4
%Mem=2Gb
# TD=(NStates=1) B3LYP/6-31G(d,p)  

ABSSPCT

0 1
6   -0.19855751533888  1.42371629097105  -0.09250353458799
6   1.01081492639528  0.92554167015483  0.04125240565510
6   1.26970038506725  -0.49242762321319  -0.00649756497740
6   0.25347226787209  -1.39167370129351  -0.06135492450550
6   -0.99631578508800  -0.94997894590730  0.08798999116061
6   -1.30728158030833  0.48291924665935  0.02321312970037
1   -0.34609516622312  2.65445835317953  0.01283250502352
1   -2.59494772042237  0.46590165490888  -0.13296628509658
1   -1.94243437197196  -1.48237358194507  0.05845784991851
1   0.41057247375209  -2.30557873656076  -0.25116526787574
1   2.30038354989550  -0.87316235233027  0.11242369255060
1   1.82874862532658  1.59320946586246  0.29264840095200





