%nproc=4
%Mem=2Gb
# TD=(NStates=1) B3LYP/6-31G(d,p)  

ABSSPCT

0 1
6   -0.27439506701173  1.35415289011389  -0.01564869182385
6   1.06219101040374  0.88845040532578  0.05268358960641
6   1.29060455870209  -0.41963384631399  -0.02159127940502
6   0.24009222962010  -1.38097151198478  -0.00976006408848
6   -1.06978758094635  -0.90890728966076  0.00361316778840
6   -1.27466994163058  0.47849784135488  -0.03375081615028
1   -0.30635100044655  2.42643619894416  0.04784632997848
1   -2.34489767470814  0.68043934520294  0.17783868342846
1   -1.93182157446576  -1.51200704677948  0.13443884835334
1   0.58316320762631  -2.48200546528505  0.00034189772153
1   2.41095537203062  -0.80579386519379  0.11246847919379
1   1.89790134246376  1.60975310993853  -0.18695112384085





