%nproc=4
%Mem=2Gb
# TD=(NStates=1) B3LYP/6-31G(d,p)  

ABSSPCT

0 1
6   -0.30113614265282  1.42292876901693  -0.01123180342803
6   1.06934721683538  0.91985702532847  -0.02084274158163
6   1.25539075303781  -0.49225713568418  0.02098547079867
6   0.25212536715163  -1.43837298796644  -0.00272511765575
6   -1.02733945577067  -0.90548353690304  0.03686473311781
6   -1.28491119810229  0.46965991316793  -0.02068495306421
1   -0.29730530957060  2.55485598066029  -0.03457450314095
1   -2.22597396882668  0.74583512927492  0.12811901455161
1   -1.78236780107811  -1.45889013815504  -0.09374274153544
1   0.61316636589153  -2.47875664281527  -0.18272019679812
1   2.33450517259877  -0.62546484065473  -0.05956861364922
1   1.81590833968369  1.52902015892445  0.18767022506932





