%nproc=4
%Mem=2Gb
# TD=(NStates=1) B3LYP/6-31G(d,p)  

ABSSPCT

0 1
6   -0.23731362621972  1.33718259508357  0.03478577470093
6   1.08618753875025  0.92713142558837  0.00990759366097
6   1.32880224162859  -0.45002973792582  -0.07241002654841
6   0.24898750882863  -1.34342187346330  0.04604199280847
6   -1.09622333881845  -0.95298393982580  -0.00578793483640
6   -1.33201049618772  0.47467993656699  -0.00312806796650
1   -0.35856288201948  2.33869864104449  0.05508619237651
1   -2.32119524509820  0.94322751225549  -0.31505243319631
1   -1.92267532351160  -1.67586791219692  -0.00554927168023
1   0.45669172675486  -2.26997906737493  0.09000344570844
1   2.41738762797059  -0.91291281163713  0.02986627927886
1   1.78559661820808  1.68361104136250  -0.00616338976638





