%nproc=4
%Mem=2Gb
# TD=(NStates=1) B3LYP/6-31G(d,p)  

ABSSPCT

0 1
6   -0.23029951462426  1.38708963635007  0.09612692717107
6   1.04456780247889  0.95159378811238  -0.09269113929003
6   1.32985321305198  -0.45520517031024  -0.00836399243244
6   0.29087562059650  -1.40327389920140  0.09479967826564
6   -1.10813471950806  -0.90936393641773  -0.06320405900318
6   -1.32105302596084  0.46570692140588  -0.01333120824910
1   -0.49616564366705  2.38894416877779  0.23120690570721
1   -2.26066751378606  0.90534098623019  -0.05507765160790
1   -1.82753284041131  -1.78995156735138  -0.27667121190578
1   0.27009024675922  -2.58254233107966  0.12281265234221
1   2.34299454117137  -1.03194529787313  0.02619309414948
1   1.87177721239608  1.69499472581821  -0.20456073470005





