%nproc=4
%Mem=2Gb
# TD=(NStates=1) B3LYP/6-31G(d,p)  

ABSSPCT

0 1
6   -0.33327717417119  1.40220658372991  -0.01403685049069
6   1.10169427505333  0.91339674777072  -0.02278365492601
6   1.33017044298369  -0.48142161187848  -0.01071349181314
6   0.30510460736881  -1.38486407182568  -0.03843825137919
6   -1.06006088319621  -0.91574466349237  0.01712296616059
6   -1.32436528436424  0.49514753344485  0.01556913657542
1   -0.38332748646567  2.44002445970794  0.21303360659369
1   -2.50374083715698  0.70116531395958  -0.07591731864358
1   -2.11771254826440  -1.41850042782983  -0.01271854388326
1   0.43577860197845  -2.54853337629575  0.31629865318919
1   2.39496972607666  -1.03209087138351  0.15030325823823
1   1.90929848884607  1.62950966515656  0.18344637997938





