%nproc=4
%Mem=2Gb
# TD=(NStates=1) B3LYP/6-31G(d,p)  

ABSSPCT

0 1
6   -0.26652678415602  1.35171753421396  -0.03575161772474
6   1.08474804478776  0.92532345317594  0.09841816273592
6   1.29818184028379  -0.45109499147407  -0.06997977432394
6   0.27708408458970  -1.40747486935783  -0.00885605664349
6   -1.09092380264631  -0.87278006923786  0.02977977500392
6   -1.32030824335551  0.46436584460580  -0.05484674987568
1   -0.50698458533590  2.34297029179229  -0.06362056935942
1   -2.30477559775295  0.88833612125095  0.03088700345734
1   -1.91078492079414  -1.44863395982130  0.34176638158137
1   0.76661758042743  -2.58394678161635  0.15061231637862
1   2.25258482431110  -0.82190958876206  -0.25530183436128
1   1.88181378126012  1.55453007795094  0.29054052063546





