%nproc=4
%Mem=2Gb
# TD=(NStates=1) B3LYP/6-31G(d,p)  

ABSSPCT

0 1
6   -0.22354822328624  1.40738642170291  0.01326870581558
6   1.06743445240673  0.91568211165415  -0.00337936628872
6   1.29985923136115  -0.47761906991263  -0.02825030654991
6   0.25793494419579  -1.39793316626782  -0.00074395313412
6   -1.11571745538873  -0.91832324764258  -0.00430576064867
6   -1.28506008640629  0.44497564304435  -0.01198502337925
1   -0.70133970722352  2.43835761162233  -0.03447818844165
1   -2.32100070882645  0.90492751278726  0.05157575265533
1   -1.84094871269026  -1.68742189312507  0.15475418327154
1   0.51661816283209  -2.37949337253314  -0.04057272780638
1   2.43438034594849  -0.64376049649062  0.25736175247895
1   1.92737827045831  1.59877839304523  0.04940920179383





