%nproc=4
%Mem=2Gb
# TD=(NStates=1) B3LYP/6-31G(d,p)  

ABSSPCT

0 1
6   -0.25921947661355  1.39179423468860  -0.02614945366685
6   1.07331346348998  0.88256234612650  -0.00074578764678
6   1.29135675285682  -0.48007813323371  0.03337368385876
6   0.25992945026522  -1.38523541611618  -0.03359968441542
6   -1.07279422197749  -0.88970891549814  0.01583177055770
6   -1.29900801784351  0.48124618731236  0.04502597028432
1   -0.71806252388359  2.34496196957595  -0.24106786555127
1   -2.24155723992952  0.76291571124659  -0.08087122807292
1   -1.82458846001422  -1.68274732254175  0.06277479227389
1   0.49376331534681  -2.44427496959917  -0.37111067955779
1   2.38665879564318  -0.70631653973084  0.17296461268792
1   1.97211467207175  1.68813506371427  -0.01125960740546





