%nproc=4
%Mem=2Gb
# TD=(NStates=1) B3LYP/6-31G(d,p)  

ABSSPCT

0 1
6   -0.23265703449594  1.36616445518275  -0.04993768332389
6   1.08779654988245  0.91493361637930  0.04715694236820
6   1.30595357804878  -0.44861010552884  0.04826441682804
6   0.21495395244526  -1.32125736020029  -0.09406786860379
6   -1.08684235808283  -0.90822970623971  0.06570477661861
6   -1.28157832702885  0.42284311126243  -0.00253653090308
1   -0.51806270725515  2.31120290471674  -0.14494021607314
1   -2.26937186257595  0.66338302364488  0.08931050879394
1   -2.01686519110147  -1.68166244445353  0.04274365047192
1   0.49711291696175  -2.42633924992579  -0.12066373635886
1   2.21741733248912  -0.74548839852526  0.02445213081336
1   1.95386734820864  1.60349708098649  -0.09573416821282





