%nproc=4
%Mem=2Gb
# TD=(NStates=1) B3LYP/6-31G(d,p)  

ABSSPCT

0 1
6   -0.27748677903385  1.39934233518793  0.04073500260000
6   1.06449549969777  0.85991080267982  -0.01278880119894
6   1.32571946668325  -0.49878249757337  -0.04216448575016
6   0.28785049322646  -1.42446470431780  0.03695938931884
6   -1.03850380090206  -0.86840993232013  -0.00307002345355
6   -1.38254226891684  0.51969062543693  -0.03500736826416
1   -0.45002230391220  2.53683495234350  0.27414879981831
1   -2.33005743518969  0.73790767438394  -0.22055843854475
1   -1.63384129763784  -1.79396626927519  0.03315244200142
1   0.49580307071434  -2.43316473059414  0.21022018327859
1   2.13412336357307  -0.80264949717953  -0.08586579352780
1   2.02240255251433  1.83380490783984  0.00587855061140





