%nproc=4
%Mem=2Gb
# TD=(NStates=1) B3LYP/6-31G(d,p)  

ABSSPCT

0 1
6   -0.24357368577337  1.31598471700297  0.00581278718069
6   1.11501712683687  0.93711680720168  -0.00601888896418
6   1.35714960089517  -0.45762027991009  -0.02948518892319
6   0.27179225231134  -1.33536925279538  0.03578195606480
6   -1.09331865802602  -0.88188305420566  -0.04254080450582
6   -1.38900610816854  0.42524454733742  0.06593394894312
1   -0.43609155983252  2.34287604634414  -0.24164718756576
1   -2.46604997845074  0.92637896858056  -0.16104280568236
1   -1.89482794585873  -1.50881119551736  -0.05083692030525
1   0.38930667249296  -2.48648066127851  -0.12060768093364
1   2.24990760658527  -0.78150417870021  0.14653529733653
1   1.90348318011931  1.45907816664976  0.02024340215918





