%nproc=4
%Mem=2Gb
# TD=(NStates=1) B3LYP/6-31G(d,p)  

ABSSPCT

0 1
6   -0.26212252828846  1.34471782645308  -0.07705271286041
6   1.08869133004267  0.93009661481068  0.03618326510450
6   1.27017362220102  -0.44814490130970  0.04789733003153
6   0.28145974259976  -1.37338688512121  -0.08982633371132
6   -1.07915857805735  -0.93844245724028  0.06614663587934
6   -1.31277190301631  0.48243601015463  -0.03199247975858
1   -0.52484527807548  2.30389371498857  0.13962070232235
1   -2.23649233717116  0.94510654571888  0.28712356921932
1   -1.89533456753701  -1.53136760960313  0.24689718818365
1   0.56431109688912  -2.42135735165707  -0.24901346334443
1   2.21744201386203  -0.82599835443275  0.23499055892307
1   2.03156463392126  1.54408951485020  -0.02355865174548





