%nproc=4
%Mem=2Gb
# TD=(NStates=1) B3LYP/6-31G(d,p)  

ABSSPCT

0 1
6   -0.23921255604321  1.37948694388632  -0.03299206775264
6   1.05312354816816  0.91815235992449  -0.00379366841625
6   1.33302187267070  -0.45535829826098  0.01354601201874
6   0.25125965224240  -1.41734447622812  -0.04115099159381
6   -1.03468087741624  -0.88320393318185  -0.00633119599767
6   -1.34094884504896  0.44164088281372  0.05418686201190
1   -0.49289281202247  2.39728637102421  -0.08921548672091
1   -2.39625362371829  0.92940400221324  0.03612923278960
1   -2.00693676017180  -1.54776742682761  -0.03412971444009
1   0.41302414264792  -2.31188503537892  0.10146678141268
1   2.40982282052501  -0.81395963578794  0.16571304698262
1   1.83918700486022  1.54308112123898  0.08214867047984





