%nproc=4
%Mem=2Gb
# TD=(NStates=1) B3LYP/6-31G(d,p)  

ABSSPCT

0 1
6   -0.19469818220001  1.37467632608375  0.07260378589896
6   1.02110559274123  0.89214053387204  -0.01213231654196
6   1.26388530043448  -0.47875730794520  -0.01201027262339
6   0.25536892460484  -1.39854564383436  0.02509261768198
6   -1.02355527903919  -0.86055951352267  -0.01871989292080
6   -1.33063689866919  0.46494759245343  -0.02185136359570
1   -0.53675219448308  2.39887565291451  -0.19389113422069
1   -2.39505854740439  0.76997207300517  -0.11414759427753
1   -1.86762964649713  -1.55534480640050  0.06088029896816
1   0.77569416967191  -2.40425646053136  -0.09415606359940
1   2.31499775496519  -0.79829755183308  0.03876049950502
1   1.82202586529560  1.69053820556369  -0.18993597236369





