%nproc=4
%Mem=2Gb
# TD=(NStates=1) B3LYP/6-31G(d,p)  

ABSSPCT

0 1
6   -0.26589470816950  1.36609050744955  0.07171189477700
6   1.09982419730610  0.84096521376096  -0.01713874415286
6   1.37957892758823  -0.46724643871457  0.00622280652848
6   0.28526270963782  -1.31223505927418  0.03246138800289
6   -1.10422534854641  -0.93751822885993  0.00294558456149
6   -1.38401090088425  0.49701126296440  -0.04953236330251
1   -0.53399832084798  2.51798941275290  0.07672933078820
1   -2.47045957416328  0.87344949865842  -0.26857188542373
1   -1.82578244380393  -1.70473184723361  0.05836111349983
1   0.35148531640365  -2.44731929635067  -0.07227499306542
1   2.40286012945273  -0.72764255446378  -0.22519169754576
1   1.96262062083048  1.57442529128868  -0.21116085835938





