%nproc=4
%Mem=2Gb
# TD=(NStates=1) B3LYP/6-31G(d,p)  

ABSSPCT

0 1
6   -0.25750827237512  1.36056521592461  0.01648711727003
6   1.09695565597146  0.89512448880670  0.01733662074734
6   1.31373350215029  -0.51931073244729  -0.03080844522159
6   0.24566426392146  -1.33414074845660  -0.00735675201267
6   -1.00392326616667  -0.86780955600127  0.01462792417444
6   -1.36084338716495  0.45118555580343  -0.03686033730673
1   -0.47816326834702  2.45538710604934  0.19934322371203
1   -2.46976634199109  0.78169852783568  -0.15552442965220
1   -1.68117565688058  -1.70186811413855  0.16029401712938
1   0.21732486423911  -2.38420108671435  0.20593334424125
1   2.24920722101456  -0.73103654549784  -0.04267013972969
1   1.73843936480462  1.70683996384631  -0.00508645303359





