%nproc=4
%Mem=2Gb
# TD=(NStates=1) B3LYP/6-31G(d,p)  

ABSSPCT

0 1
6   -0.24284391224913  1.41022894652664  -0.03195972909668
6   1.09950716571393  0.91961896989484  -0.01451292396096
6   1.29424217113532  -0.45003019808447  0.02191500467497
6   0.29092361676574  -1.37018541096836  -0.01687504515877
6   -1.07996795850311  -0.96424956868851  0.00492868975318
6   -1.36157443951222  0.46560724665613  0.00684941825892
1   -0.34243109682640  2.60940640835618  0.09124343655872
1   -2.40672136001692  1.01449552557022  0.17574918740972
1   -1.94043689494880  -1.88101863049839  -0.01354243854578
1   0.58844513669053  -2.41144144345627  -0.02026890090867
1   2.16305161740712  -1.09170571421450  0.08608891451582
1   1.95152470093395  1.60604983562876  0.09942252010113





