%nproc=4
%Mem=2Gb
# TD=(NStates=1) B3LYP/6-31G(d,p)  

ABSSPCT

0 1
6   -0.26504288651080  1.32725370025391  -0.02137597264847
6   1.07814110377703  0.92052079967484  0.02644847892528
6   1.37141067220106  -0.48185920284657  -0.04173316110822
6   0.25601819137643  -1.31882574106022  0.02639596836219
6   -1.07749628592182  -0.94069371532855  0.01811206375008
6   -1.37181210983176  0.46793791143739  0.02465021438006
1   -0.32787788409373  2.36441533033984  0.00313583972455
1   -2.26978321057775  1.04543890894370  -0.34030427577952
1   -1.96300604921183  -1.57430102803312  -0.01917067087348
1   0.44901127309682  -2.27539654891403  -0.09509857956233
1   2.41969151181517  -1.00192591740264  -0.12507024599141
1   1.83764358013092  1.76654502428160  0.13245711019672





