%nproc=4
%Mem=2Gb
# TD=(NStates=1) B3LYP/6-31G(d,p)  

ABSSPCT

0 1
6   -0.30372992693151  1.40543483879292  0.01083106232781
6   1.05641588120622  0.88438455003690  0.00978533883297
6   1.31332575433055  -0.49537682935323  0.03903217245028
6   0.25213979245789  -1.35876065469174  -0.00573037081970
6   -1.03172092035331  -0.94723539553244  -0.03064847580182
6   -1.29015552537975  0.49672512463362  -0.02100694522166
1   -0.59112536906506  2.49629871295110  0.13271442339060
1   -2.16657827397186  0.93539131891249  0.11429532915579
1   -1.85857006354212  -1.53758255328495  0.04089347190981
1   0.55944871252292  -2.39289148061595  0.21051054931958
1   2.32269915488925  -1.00716707399517  -0.24097371015820
1   1.80395820589277  1.69482578816894  -0.24038867560111





