%nproc=4
%Mem=2Gb
# TD=(NStates=1) B3LYP/6-31G(d,p)  

ABSSPCT

0 1
6   -0.29220561565432  1.41885704491527  -0.00057605023234
6   1.07219759676611  0.86363368766818  -0.01483971636950
6   1.43489534218700  -0.48755783701604  0.02357274846756
6   0.27902007452395  -1.34798445189580  0.03038520362280
6   -1.09069395128233  -0.89613721524322  -0.04755890582639
6   -1.37428048659275  0.48066858727860  0.04715892138494
1   -0.54979413374344  2.43259598375838  0.12795326273691
1   -2.44459419250251  0.84465320974326  -0.13943447244416
1   -1.83355645075758  -1.73536660845382  -0.12710240712831
1   0.31315887381983  -2.45143945110705  0.01248446302052
1   2.34127648870348  -1.06379179143447  -0.07196834243206
1   1.78770595093208  1.62061660710504  -0.25290334175905





