%nproc=4
%Mem=2Gb
# TD=(NStates=1) B3LYP/6-31G(d,p)  

ABSSPCT

0 1
6   -0.26439695572056  1.40533239816684  0.07501462398582
6   1.12191021670179  0.90945203436067  -0.13190640227514
6   1.31370606172913  -0.43775548976348  0.08126233706748
6   0.22420038432419  -1.40330082231543  -0.04766670261120
6   -1.03910533717923  -0.90714200711957  -0.02303651029301
6   -1.30977020356739  0.47646801716593  0.01030739503754
1   -0.76046058172341  2.28016181991197  0.08823860631857
1   -2.44017280801849  0.62286387986240  -0.01526155161561
1   -1.92647541430818  -1.64111362143510  0.03201370638668
1   0.28254312077862  -2.43254837599465  0.21121921833713
1   2.33912625717033  -1.01052703635694  0.20152328834253
1   1.89819108159841  1.73407061323533  0.06031253641364





