%nproc=4
%Mem=2Gb
# TD=(NStates=1) B3LYP/6-31G(d,p)  

ABSSPCT

0 1
6   -0.28496443122854  1.35357954843473  -0.03730542087026
6   1.05449216209974  0.90277342608608  0.00509504618394
6   1.35646487809126  -0.54218268780417  -0.01200591218165
6   0.31650716823762  -1.36160331484954  0.04446782198922
6   -1.05155884836646  -0.83798663424899  -0.08756958530718
6   -1.38117848699665  0.48487507976149  0.05816961374796
1   -0.40440887780391  2.30079461986620  0.17932735940518
1   -2.45801393899512  0.85979375558931  0.09933431985148
1   -1.88057153638531  -1.52690139631896  0.02882536553191
1   0.45795916418217  -2.45371113014534  0.16322928640310
1   2.36240295399325  -0.73730879506580  0.04090639758860
1   1.77780262648811  1.58972785269675  -0.05548492185746





