%nproc=4
%Mem=2Gb
# TD=(NStates=1) B3LYP/6-31G(d,p)  

ABSSPCT

0 1
6   -0.29565451177568  1.29780481696971  -0.00172992656979
6   1.09598083339515  0.89816238290395  0.02510589110174
6   1.29089728110091  -0.41367394533397  -0.01966319112152
6   0.22585482352089  -1.37668960655873  -0.02248173059333
6   -1.00985955311363  -0.94176459067834  0.05113508563750
6   -1.28773947304465  0.46343788573037  -0.04209293806302
1   -0.33707112323499  2.53473753890079  -0.05568300337816
1   -2.24173065883509  1.11288370516151  -0.00971274984560
1   -2.04457794277663  -1.43830364400360  0.06703947446526
1   0.43739558851149  -2.32351044052287  0.00811581841467
1   2.16784736462341  -0.62555909011335  -0.08510412151250
1   1.86548837420843  1.56275810001937  0.16478904235570





