%nproc=4
%Mem=2Gb
# TD=(NStates=1) B3LYP/6-31G(d,p)  

ABSSPCT

0 1
6   -0.27509674996713  1.34036209342040  0.03426213056673
6   1.07231021639842  0.88113054362504  0.00896884289304
6   1.29456796070302  -0.42161583763392  -0.04811858729910
6   0.25003116238410  -1.38328714856488  0.02558528276784
6   -1.02350768846150  -0.86151543347650  0.02753931161218
6   -1.32362285557359  0.44881530607603  -0.05221548697304
1   -0.58476829216489  2.37048250848981  0.13609654924389
1   -2.30584619939989  0.90570281811218  -0.29800560241415
1   -1.80814971342680  -1.56486401125822  0.13414210069669
1   0.36680529068015  -2.46668699509804  0.13849762209621
1   2.35216351222373  -0.80693622355889  -0.27163749172108
1   2.02860042772174  1.46419866904553  0.19923982995969





