%nproc=4
%Mem=2Gb
# TD=(NStates=1) B3LYP/6-31G(d,p)  

ABSSPCT

0 1
6   -0.27357776877552  1.39646424585483  0.06248498034349
6   1.08438559243718  0.90911881903776  0.01628757665277
6   1.28397432739389  -0.45372878896573  -0.06674974682577
6   0.29518298348880  -1.37354231810019  0.03269870345273
6   -1.09271625830366  -0.91601554672835  -0.05833851780159
6   -1.30823686136094  0.42264452454630  -0.01977995586969
1   -0.16547947592979  2.50179989004231  -0.07813890581239
1   -2.36970937173730  0.89110607252196  0.06460757278000
1   -1.95756343688907  -1.56493553339245  0.02246761978934
1   0.45455002975299  -2.46377048063567  0.50414354017608
1   2.30757014090840  -0.80298591130212  -0.00358029712454
1   1.87184665600142  1.63085599247244  -0.07232461255784





