%nproc=4
%Mem=2Gb
# TD=(NStates=1) B3LYP/6-31G(d,p)  

ABSSPCT

0 1
6   -0.20887320874535  1.33156673504893  -0.02932031962596
6   1.06527903412635  0.94481114272790  0.01506430753783
6   1.24578011763637  -0.42862751346353  -0.00110151540616
6   0.22155317654101  -1.33260159312272  -0.01682349941856
6   -1.07114976947088  -0.94000777688086  0.03049834107479
6   -1.27482952597515  0.42509746547792  -0.01363978969860
1   -0.42720444076978  2.33149612436742  -0.01822493031002
1   -2.29818405467452  1.02731577541344  0.07799462790611
1   -1.83916261743320  -1.74678592531334  0.07836508339663
1   0.46521512618750  -2.45705287990724  -0.12876618798783
1   2.38209079147061  -0.80513355712975  0.02158065951919
1   1.97126307230376  1.60613755544319  0.14949932090436





