%nproc=4
%Mem=2Gb
# TD=(NStates=1) B3LYP/6-31G(d,p)  

ABSSPCT

0 1
6   -0.25000562400122  1.28318651048549  -0.03029487381453
6   1.12112522701987  0.92135874505020  0.07167851368189
6   1.27630769997567  -0.39352729052293  -0.08639860852095
6   0.25490428124591  -1.39913827170821  0.05939918969519
6   -1.06401174014790  -0.89312917035870  0.01963596183697
6   -1.35629074291786  0.47468644429909  -0.02443466902188
1   -0.38891202089991  2.44353543603076  0.00393140532644
1   -2.45476216671975  0.81506593003912  -0.03779261350347
1   -1.78906634520387  -1.55947039902727  -0.04049475144298
1   0.43112752655030  -2.35609614551427  -0.11674404406848
1   2.42485106343147  -0.86165698402660  -0.10283889239464
1   2.02479871101653  1.55561340462776  0.08299194320728





