%nproc=4
%Mem=2Gb
# TD=(NStates=1) B3LYP/6-31G(d,p)  

ABSSPCT

0 1
6   -0.23466577179662  1.29295198650030  0.01493784116852
6   1.09440728236608  0.89757603348113  0.01250780873864
6   1.33146969737954  -0.43511825196554  0.00762948576845
6   0.27611686409608  -1.33671185671085  0.02079684804272
6   -1.09532957435562  -0.86919508429194  -0.01962732488146
6   -1.37074303447316  0.44967936701974  -0.05549881128724
1   -0.58878361150418  2.41984615569662  0.25961061041699
1   -2.27151152632033  0.97818486708030  0.11816401988292
1   -2.00603368001105  -1.64052907689638  0.12642239236559
1   0.66387927828728  -2.37139611460964  0.12858520015420
1   2.28437378507378  -0.88774572261540  -0.19867030026346
1   1.93394138544468  1.50247604354718  -0.16411892882295





