%nproc=4
%Mem=2Gb
# TD=(NStates=1) B3LYP/6-31G(d,p)  

ABSSPCT

0 1
6   -0.26639295413810  1.37620975372721  0.03612635184952
6   1.12830678303339  0.93307835671075  -0.02252875855136
6   1.31085943641357  -0.45767439605479  0.02577045624285
6   0.25260295537622  -1.39761056497605  -0.01526488569001
6   -1.06886296145215  -0.92119659869619  0.01795925171394
6   -1.36659819241410  0.44203512184081  -0.02708445783784
1   -0.33606130108603  2.36285283525870  0.30924283038642
1   -2.48000320165159  1.15173801620284  -0.22514133000326
1   -1.83326237803892  -1.66255221361345  -0.02033282475413
1   0.59394792889541  -2.36651522889944  0.10054947660790
1   2.30388217992025  -0.80040700124687  -0.02472689896135
1   1.87103498575370  1.56930304604978  -0.29856212478100





