%nproc=4
%Mem=2Gb
# TD=(NStates=1) B3LYP/6-31G(d,p)  

ABSSPCT

0 1
6   -0.18721106269609  1.32445975162002  -0.06748141912178
6   1.04350318154567  0.93674588449039  0.02969741187813
6   1.32078981952714  -0.41204518594328  0.05364336602254
6   0.23679953161305  -1.31514279573422  -0.03668208273956
6   -1.10802427629046  -0.95477815830222  0.01765120225150
6   -1.30742087766426  0.44707145421701  0.01540597784134
1   -0.20858268401902  2.38392461506605  0.01425154262549
1   -2.17085331713208  0.79344648880080  0.17705899751432
1   -2.08273445627108  -1.70066428400740  0.01641725330900
1   0.51316369927787  -2.32188559930199  -0.22668209454333
1   2.31621089176721  -1.03655999069396  -0.03551381131584
1   1.69352016208047  1.67746723903949  -0.09610516887047





