%nproc=4
%Mem=2Gb
# TD=(NStates=1) B3LYP/6-31G(d,p)  

ABSSPCT

0 1
6   -0.21430224604976  1.31759879120880  -0.01590821664710
6   1.01377110191068  0.94302041609810  -0.07326847055290
6   1.33838439042264  -0.47719820552857  0.08532305957911
6   0.26439216458907  -1.36359887619342  -0.03113506454729
6   -1.08839173438398  -0.88800261282632  -0.05654912428057
6   -1.33419623347752  0.46634878175783  0.09194007666271
1   -0.50935113983839  2.42447592071327  -0.21818673991426
1   -2.33164048666642  0.91867990528737  0.23724402974822
1   -1.88188375029816  -1.58058072125432  -0.16757956068487
1   0.57368816221357  -2.50903827035699  0.00953860513715
1   2.38276195121993  -0.88599944131513  0.15213439342864
1   2.00248348983804  1.64368547682888  0.06699882014213





