%nproc=4
%Mem=2Gb
# TD=(NStates=1) B3LYP/6-31G(d,p)  

ABSSPCT

0 1
6   -0.24383822614764  1.40928187562979  -0.04145601615491
6   1.03931438666868  0.88919436949301  0.02409477805513
6   1.34052824685745  -0.50716080440588  0.02755021855673
6   0.25801948153466  -1.33099642806210  -0.03669126182550
6   -1.03930202668105  -0.90512660082970  0.01473545744004
6   -1.34443084447188  0.41885428368984  -0.01580982790514
1   -0.36092565775286  2.56915284218778  0.00925358281530
1   -2.28416506281696  0.86162348349529  0.38943045546104
1   -1.80794657524902  -1.53397696222566  -0.02598083778035
1   0.37333047061757  -2.42431263336299  -0.04352056365478
1   2.23035147833957  -0.88126150363209  0.12815858686131
1   1.73725384584409  1.71410819454479  -0.10220634887618





