%nproc=4
%Mem=2Gb
# TD=(NStates=1) B3LYP/6-31G(d,p)  

ABSSPCT

0 1
6   -0.23645631601398  1.36375281898884  -0.04871696898422
6   1.06433100722318  0.97383270511948  0.04025373601781
6   1.31981408620862  -0.43517964609415  -0.02813557192697
6   0.19924538521085  -1.38195729994841  -0.06508832313211
6   -1.04672937579484  -0.92034027052655  0.02995667231931
6   -1.31469441644892  0.42338710459163  0.04015952568978
1   -0.29646613072570  2.51931312293950  -0.11669515631663
1   -2.44207813197925  0.73766981329405  -0.02395611029329
1   -1.93556946607689  -1.55170905911553  0.01083179080053
1   0.50936062909011  -2.55784852670342  0.20128954489838
1   2.23200953702713  -0.99336524893950  0.21467211223549
1   2.05116593104489  1.59600645499428  0.14786936069179





