%nproc=4
%Mem=2Gb
# TD=(NStates=1) B3LYP/6-31G(d,p)  

ABSSPCT

0 1
6   -0.21837535089603  1.41846137749739  0.02044000752541
6   1.04737573309201  0.90955582731170  -0.00668465363971
6   1.27866779521746  -0.46965246376592  0.02844869079289
6   0.25249084770190  -1.34076708205481  -0.00166723255476
6   -1.09036416823797  -0.92960325858549  0.03142311718318
6   -1.28246198228809  0.43846290263490  -0.01080475895021
1   -0.64830546500673  2.30319589381828  -0.23716645721702
1   -2.34175805593466  0.67866446253741  -0.12156075605989
1   -1.85721799783260  -1.74735648993836  -0.07838925872759
1   0.34412652554081  -2.32946218134162  -0.19884020734677
1   2.49502579016777  -0.67191219328587  -0.27386253775543
1   2.13635176278458  1.36433464698088  0.06435740565312





