%nproc=4
%Mem=2Gb
# TD=(NStates=1) B3LYP/6-31G(d,p)  

ABSSPCT

0 1
6   -0.24374488168201  1.33033389108430  0.08231916614172
6   1.08137593980867  0.90380341347133  -0.11643965163583
6   1.33150954020159  -0.44580414535163  0.06028552671505
6   0.26273657622777  -1.27393669539236  -0.02242512465131
6   -1.10218584916489  -0.92406241237053  -0.04231215119425
6   -1.36633369062490  0.43049030946494  0.00423101164877
1   -0.31833973651990  2.39838637912433  0.05350840848168
1   -2.26844193588178  0.86776294737567  0.08699603153220
1   -1.77353014095025  -1.70498019665379  0.00279595129536
1   0.35775916212654  -2.44822489149522  0.16857053821681
1   2.33634465424465  -0.94595406713081  0.29383604641690
1   2.07412127040884  1.53771937793311  -0.08390466906477





