%nproc=4
%Mem=2Gb
# TD=(NStates=1) B3LYP/6-31G(d,p)  

ABSSPCT

0 1
6   -0.22973331946102  1.37172371960191  -0.01802870737769
6   1.04896469346313  0.92660685308230  -0.02428118036594
6   1.34771920511390  -0.45979831897931  0.04018211589487
6   0.24985411512259  -1.38819082354333  -0.05241097461499
6   -1.03789052535267  -0.91673749636933  0.01375548033626
6   -1.33578706456329  0.46878518278689  0.05151703342307
1   -0.55548766975435  2.39644311438466  0.00795717187728
1   -2.40291105587557  0.77930227210329  -0.07804146595801
1   -2.07359372379177  -1.54626020833928  -0.17098966702553
1   0.27583240813493  -2.42198805315237  0.09247566611235
1   2.31444995019100  -0.71213074740493  0.13585875281513
1   1.92941910261295  1.48200520587832  -0.06873485210921





