%nproc=4
%Mem=2Gb
# TD=(NStates=1) B3LYP/6-31G(d,p)  

ABSSPCT

0 1
6   -0.29244281070558  1.40138004524222  0.06226403514691
6   1.04585270209339  0.91594650801435  -0.02303132787047
6   1.28601998208452  -0.50634202486708  -0.07350460589794
6   0.25936235532473  -1.37122068119355  0.02975805482186
6   -1.05954594225789  -0.93237466777849  0.01518963508619
6   -1.26689770451550  0.48540527004875  -0.02889853662218
1   -0.52667347412337  2.48129101567188  -0.07582976912833
1   -2.31727785688479  0.89817386221446  -0.21913868407008
1   -1.74656528586998  -1.80055086164809  0.09110334501829
1   0.39873401461593  -2.39520842712606  -0.02359804186877
1   2.43423382043642  -0.81195117255597  0.23203121545414
1   2.08250804968914  1.61027696990092  0.17038062013897





