%nproc=4
%Mem=2Gb
# TD=(NStates=1) B3LYP/6-31G(d,p)  

ABSSPCT

0 1
6   -0.25379860509030  1.35521827429861  0.05866690240191
6   1.03910440752458  0.92812200380945  -0.06452237871585
6   1.34724831655111  -0.49487963856754  0.02916603947100
6   0.25506011473158  -1.40463119229970  -0.02538702475238
6   -1.03114499464744  -0.88630070608674  -0.00547193962068
6   -1.38231826293233  0.50312864211583  -0.00765789814448
1   -0.28528630578547  2.42532747862871  0.08887363714925
1   -2.36816898970757  0.85896454274345  -0.08211154294183
1   -1.79140631613025  -1.73239071322574  -0.02180043005738
1   0.45242176648193  -2.42815270898237  0.22530775890215
1   2.39349035239094  -0.77518237885869  0.09315029506595
1   1.91150738852200  1.61313397799447  -0.05105732918727





