%nproc=4
%Mem=2Gb
# TD=(NStates=1) B3LYP/6-31G(d,p)  

ABSSPCT

0 1
6   -0.28818950222961  1.41690967389441  -0.03272981927861
6   1.03490638727107  0.93902157611414  -0.00324113365626
6   1.34218989002555  -0.51822333580852  0.07139352141135
6   0.24565424008328  -1.43130704711342  -0.06099113203294
6   -1.04030461448499  -0.85253041242224  -0.07576356899250
6   -1.32685593759831  0.45858235974712  0.09506664399457
1   -0.29835747343684  2.50824551130302  -0.07023146227682
1   -2.31253711623586  0.72898135719628  0.09213077325422
1   -1.63911802846694  -1.73450184116677  0.08242380856281
1   0.34211348939597  -2.55629268335722  0.21919717305136
1   2.35098871538119  -0.84385282128853  0.15411004751770
1   1.89848456706546  1.71962503083128  -0.27896364431102





