%nproc=4
%Mem=2Gb
# TD=(NStates=1) B3LYP/6-31G(d,p)  

ABSSPCT

0 1
6   -0.25346309952479  1.41490106700650  -0.03521096913608
6   1.04644465001965  0.86513262574787  0.04589124028688
6   1.32068209106068  -0.45741555369196  -0.02956519980596
6   0.24604810406448  -1.42375431303199  -0.00148756386095
6   -1.08004826215996  -0.91225562190479  0.00811877051821
6   -1.30819805724081  0.47592211318308  0.02730773578877
1   -0.43629611479566  2.64304401380738  0.03742060349405
1   -2.31117428784372  0.77487856555019  -0.19228685937616
1   -1.81807525333294  -1.59967678683815  0.08235215380589
1   0.69914664110378  -2.31222798437232  -0.16010077182640
1   2.42247601468707  -0.59610714734497  0.15704044836770
1   1.86221296848932  1.46259196011387  -0.14391022629590





