%nproc=4
%Mem=2Gb
# TD=(NStates=1) B3LYP/6-31G(d,p)  

ABSSPCT

0 1
6   -0.21775839489533  1.36515132776995  -0.05551801107036
6   1.03584192060318  0.96592553387743  0.06743302885871
6   1.33514198563772  -0.47991377995532  -0.01367876730963
6   0.20467807141991  -1.32028393914608  -0.05498787936725
6   -1.09334355987322  -1.01754703130302  0.02204900988053
6   -1.26736367988134  0.45721002670200  0.03242830600941
1   -0.49716609520413  2.44580930614197  -0.08835139055320
1   -2.03037145201782  0.91990860015242  -0.04736931903503
1   -2.03200962601368  -1.57941486637290  -0.04645914247240
1   0.50596850576948  -2.33116853296267  0.33433320221413
1   2.16288490070856  -0.88326303086514  -0.16681699151202
1   1.95403212410024  1.78036323150866  0.08381279402181





