%nproc=4
%Mem=2Gb
# TD=(NStates=1) B3LYP/6-31G(d,p)  

ABSSPCT

0 1
6   -0.24495156372495  1.37768118259223  -0.00375995827943
6   1.07441261124506  0.86079596643358  -0.03190516718754
6   1.25435275691467  -0.42935571974415  0.00767937684206
6   0.29019842809681  -1.39317926156972  0.04407157585537
6   -1.06088024377096  -0.86084576310866  -0.04119456862608
6   -1.32712759596336  0.44579696586561  -0.00627460111524
1   -0.39708604038302  2.38915193425924  0.22970632746179
1   -2.28304715298411  0.80742222903694  0.24252076523786
1   -1.84795429157373  -1.71542195162828  -0.06816380812480
1   0.57682872233434  -2.32561834438175  0.01812209217145
1   2.20076301173825  -0.83873191806201  0.04565975062212
1   1.93319105943635  1.65756082558978  -0.02569717621288





