%nproc=4
%Mem=2Gb
# TD=(NStates=1) B3LYP/6-31G(d,p)  

ABSSPCT

0 1
6   -0.24375157584907  1.37330067287523  -0.04406906587935
6   1.09711548231791  0.98297346964197  0.04702473268268
6   1.33522630746957  -0.48808736229764  -0.00622976148381
6   0.23726847680043  -1.39447724165615  -0.00292448122559
6   -1.04656989308691  -0.88660430603986  -0.04723586339965
6   -1.34478483091609  0.42828829175374  0.04666964686956
1   -0.45411662461283  2.52446545040928  0.05875954438288
1   -2.28802566558755  0.61856141127704  -0.08963197771136
1   -2.01027718819629  -1.62777729386207  0.18908086102716
1   0.09324594176222  -2.44389577223051  0.14516087680384
1   2.47972618336053  -0.91650833891189  -0.09291293907977
1   1.78764211488949  1.71226274105362  -0.06559393180687





