%nproc=4
%Mem=2Gb
# TD=(NStates=1) B3LYP/6-31G(d,p)  

ABSSPCT

0 1
6   -0.29880335000676  1.36119781778757  0.01683460219364
6   1.07712709486536  1.00435828108654  -0.06304402072440
6   1.27460645468030  -0.48421664966911  0.03339648923251
6   0.22451289831096  -1.45201371349502  -0.06339538813120
6   -1.02320914128758  -0.93048609409119  0.04263096199962
6   -1.25179179620495  0.47217636253172  0.02784150446143
1   -0.35763208331316  2.49381526818474  -0.01725193141178
1   -2.44711707453918  0.84868573954855  -0.14317681552643
1   -1.90937607276920  -1.44266588120500  -0.13081999357860
1   0.37386722841820  -2.54485287540967  0.04117584463448
1   2.26842197708018  -0.71093804828356  0.28353359833996
1   2.01610152185971  1.68572207748882  0.08110889081880





