%nproc=4
%Mem=2Gb
# TD=(NStates=1) B3LYP/6-31G(d,p)  

ABSSPCT

0 1
6   -0.26562136350997  1.42168473213913  -0.03260269643899
6   1.03362859419589  0.84726095339119  -0.01059471825605
6   1.31535740762014  -0.48614908405381  0.02101151876023
6   0.29413759628336  -1.39600023153526  0.00318938120039
6   -1.05765459657069  -0.86696400213647  -0.02554150934676
6   -1.34913941770838  0.46465192593294  0.05953866714133
1   -0.55001319751028  2.44868060608808  -0.03317068111241
1   -2.41663221306635  0.96119917488681  0.01721509833667
1   -1.89232155290414  -1.71680631225232  -0.12037210788761
1   0.78852016223316  -2.26269318092588  -0.07357286885337
1   2.33760036526924  -0.84811300413341  0.07303182793519
1   2.10093301603809  1.51983351805708  -0.02782451645791





