%nproc=4
%Mem=2Gb
# TD=(NStates=1) B3LYP/6-31G(d,p)  

ABSSPCT

0 1
6   -0.27223991059609  1.39733351204083  0.09790603754014
6   1.03851203998691  0.88264721568130  -0.08693338146674
6   1.36287846335918  -0.47799883131886  0.01862230098342
6   0.26600969252318  -1.35959225070534  -0.01048772276915
6   -1.04327273398137  -0.92488667359684  0.04002525773165
6   -1.36029430645063  0.48634729606019  -0.09055131217083
1   -0.39879885466136  2.33974727433371  0.25458305855979
1   -2.26638299258945  0.91633222886611  -0.09117489532673
1   -1.88487965921132  -1.59100351170971  0.03798560877880
1   0.37666521652513  -2.47724966426182  0.16766761128914
1   2.33587708443501  -0.75055413021060  -0.01155216637437
1   1.92067105950873  1.50420162826308  0.06987168426277





