%nproc=4
%Mem=2Gb
# TD=(NStates=1) B3LYP/6-31G(d,p)  

ABSSPCT

0 1
6   -0.28565065108596  1.32566347862091  -0.03031597606036
6   1.07484865586844  0.86834757259812  0.04809962542645
6   1.31392637683083  -0.44905967094345  -0.04460096851059
6   0.26395066413514  -1.35970981621318  0.04407076762160
6   -1.03836043612785  -0.87466955474981  0.00043713993910
6   -1.33506706584694  0.45727062293716  0.00441587589841
1   -0.24638729874781  2.50754805902912  -0.08847363797751
1   -2.33719409881903  0.89761860327684  0.04628341784240
1   -1.93864403955041  -1.51569772240674  -0.11477030761294
1   0.45837886891174  -2.42284353667008  -0.12759191932020
1   2.38444817905306  -0.74703005577053  -0.08359947584879
1   1.79913459232145  1.67719705744766  0.02011305941096





