%nproc=4
%Mem=2Gb
# TD=(NStates=1) B3LYP/6-31G(d,p)  

ABSSPCT

0 1
6   -0.21030018229727  1.40318526631024  0.02716575976144
6   1.02957952692050  0.94388968278277  -0.02403174087993
6   1.28585125553981  -0.47599154708273  0.04723501645481
6   0.27406053876232  -1.36292635148511  -0.05187671960894
6   -1.07796056260790  -0.92092812542543  0.01601405420906
6   -1.28771111198806  0.44906478573891  0.00877000813886
1   -0.54573806162519  2.45134822125877  -0.07539395064068
1   -2.37998707818962  0.55530371991652  -0.15444219008520
1   -1.99377605531511  -1.73107606196866  0.08139378631384
1   0.30464365972712  -2.42475795995423  -0.08884572938687
1   2.25104376238101  -0.87622409954077  0.12887276359689
1   2.16631936347348  1.57520696669638  -0.18640347506096





