%nproc=4
%Mem=2Gb
# TD=(NStates=1) B3LYP/6-31G(d,p)  

ABSSPCT

0 1
6   -0.23271636363276  1.36588191721840  0.04302078332777
6   1.02803117775276  0.92589537260875  -0.02993215515750
6   1.28677616313660  -0.46360660803857  -0.01389125680808
6   0.27024217721036  -1.37681096851853  -0.00252559892255
6   -1.01823707125194  -0.89986932568981  0.00021768623637
6   -1.31750047631600  0.45451620170834  0.00022902089223
1   -0.46443110226396  2.49625481605282  -0.12788165574082
1   -2.41878756197331  0.72177417194765  -0.10726582473321
1   -1.74811367099552  -1.56424190249168  0.02788646179704
1   0.15861127770489  -2.39317913764935  0.02283570501130
1   2.28950142437569  -0.86307492237583  0.13387481813557
1   1.97973354020968  1.47028475889269  0.07280886427115





