%nproc=4
%Mem=2Gb
# TD=(NStates=1) B3LYP/6-31G(d,p)  

ABSSPCT

0 1
6   -0.23134688851004  1.41502174953318  -0.02128994213839
6   1.03684054317365  0.88464449732160  0.01183586447402
6   1.27228229412102  -0.46680403029553  0.02444047387378
6   0.33086742678807  -1.42903369654689  -0.00052967798881
6   -1.06660359837009  -0.84633877787176  0.01040974683167
6   -1.29790447497784  0.44619275257487  0.02641453593640
1   -0.54698960135103  2.51629666428649  -0.11752855720718
1   -2.34127330607740  0.65583276678258  0.13385463673711
1   -2.12109336390491  -1.47273781126340  -0.37665362569527
1   0.47113170651007  -2.59525095943012  -0.09193225026582
1   2.24124865848788  -0.76775052510942  -0.01683186569968
1   1.78083030545669  1.71415429754586  -0.22511949994325





