%nproc=4
%Mem=2Gb
# TD=(NStates=1) B3LYP/6-31G(d,p)  

ABSSPCT

0 1
6   -0.22499432057625  1.35563205882969  0.04720884886049
6   1.06864925739051  0.91059998374901  -0.05667323624976
6   1.28344332490906  -0.43095245835030  -0.00864215091279
6   0.24011369547742  -1.39453577753404  0.07443801399428
6   -1.03660659256344  -0.87013567849539  -0.05113754662159
6   -1.34313200684844  0.40837274889619  -0.03572660691250
1   -0.44236569460874  2.50818402895397  0.04210905210374
1   -2.29701894681065  0.85032859059796  0.23567866231483
1   -1.87249267437032  -1.51315114293465  0.04851851291243
1   0.38326800240601  -2.52509407310135  -0.08733030709538
1   2.39874479367988  -0.76533910686174  0.00619914585662
1   1.99591339001855  1.66708601799230  0.13526940991704





