%nproc=4
%Mem=2Gb
# TD=(NStates=1) B3LYP/6-31G(d,p)  

ABSSPCT

0 1
6   -0.22246772997313  1.37839744885444  0.02913141497273
6   1.06518866513044  0.83807174545285  -0.07302546801133
6   1.40350818940377  -0.47133095284101  0.06684367090857
6   0.29154618530480  -1.32224979923501  -0.04993971302398
6   -1.13826918829274  -0.91843290345677  -0.00482677311367
6   -1.38085194239797  0.47363832563402  0.01642186421681
1   -0.57293500399091  2.46187570244801  0.00474030808143
1   -2.39733017916874  0.79175716320053  0.00905809435204
1   -1.91217183470390  -1.59074987261390  0.05088892804003
1   0.43901632545169  -2.31433658759336  0.02222473228144
1   2.44894103975901  -0.66435788101271  0.18013814190602
1   1.82165056563236  1.54451234112086  -0.00467419059342





