%nproc=4
%Mem=2Gb
# TD=(NStates=1) B3LYP/6-31G(d,p)  

ABSSPCT

0 1
6   -0.18921250099319  1.42482142483456  -0.00865697643774
6   1.07088530489866  0.95229709987145  0.04964625988989
6   1.26892755544030  -0.44633648859173  -0.03015651394036
6   0.23217611080885  -1.42574799095907  0.03310121728820
6   -1.07348586496475  -0.93018906509365  -0.01329873056197
6   -1.32912134661320  0.43388526084075  -0.00234273882725
1   -0.38353556307274  2.51636620563603  -0.15623362360604
1   -2.40889008668273  0.80327579675950  -0.03313233551576
1   -1.80371920966359  -1.71187976904492  -0.00265046297444
1   0.55217791006764  -2.59829397463309  0.04774009742845
1   2.35617010504672  -0.77098092244921  -0.32575512245077
1   1.90812809539014  1.64868408817793  0.06757029409489





