%nproc=4
%Mem=2Gb
# TD=(NStates=1) B3LYP/6-31G(d,p)  

ABSSPCT

0 1
6   -0.27988409559534  1.37030425891774  0.02409144602546
6   1.02793804387319  0.92258408148854  -0.03576309970275
6   1.28991315585419  -0.49086248237116  0.04901776325336
6   0.29230392004543  -1.40259542277403  0.00996048285813
6   -1.05343221094436  -0.85780662059900  -0.02334179873299
6   -1.32388893128714  0.45314105722545  -0.00829860997544
1   -0.36125242235228  2.40296041477782  0.09425629665836
1   -2.17377925025186  0.95841085795278  -0.03436409949071
1   -1.91949071552284  -1.68840272378228  0.08057049378955
1   0.52506714644147  -2.42796280356644  -0.07308383415214
1   2.44066737456868  -0.78449027878057  -0.14912252660545
1   2.06537539003867  1.55212177040008  -0.09238296845401





