%nproc=4
%Mem=2Gb
# TD=(NStates=1) B3LYP/6-31G(d,p)  

ABSSPCT

0 1
6   -0.25925704214953  1.33402254624830  -0.06952227751638
6   1.07194877280868  0.84175317463473  0.07758860503421
6   1.34038510361175  -0.43310940393548  -0.02665638394074
6   0.29554554129173  -1.38770677681249  -0.01804670677774
6   -1.05610601567387  -0.88833988201309  0.04719090559020
6   -1.40608108419819  0.50602734821775  -0.04582747055374
1   -0.28850708917806  2.51376087307862  0.20272835506265
1   -2.40106755093942  0.95873136217613  0.10371520575537
1   -1.84411331851892  -1.65248395001306  0.22155308804757
1   0.51717176622791  -2.40588155834909  -0.09648524442098
1   2.35274201469416  -0.78742009457594  -0.06137653080379
1   1.88205459225796  1.67162416867812  0.06581359385564





