%nproc=4
%Mem=2Gb
# TD=(NStates=1) B3LYP/6-31G(d,p)  

ABSSPCT

0 1
6   -0.31492786307080  1.38721613259202  -0.02232702234278
6   1.07363170004710  0.85098234010503  0.09639314540327
6   1.35257423188663  -0.46932595438200  -0.05827687117054
6   0.25905620897805  -1.40214435642422  -0.02437932630135
6   -1.03423444506453  -0.90482253590023  0.03745513860898
6   -1.33950389983163  0.50730459075231  -0.05204449605162
1   -0.52698215032834  2.53062508778843  -0.09200093927937
1   -2.28123995526526  0.83052699700881  0.05284771693874
1   -1.84623080601734  -1.57636068279247  0.20450316401203
1   0.31487005237004  -2.42868103964735  0.15444420599567
1   2.45095216565505  -0.71429256411831  -0.13223025299686
1   1.96818433843991  1.67190696190892  0.05995057365083





