%nproc=4
%Mem=2Gb
# TD=(NStates=1) B3LYP/6-31G(d,p)  

ABSSPCT

0 1
6   -0.26142814025741  1.37052317371114  -0.08691916407447
6   1.05644953465289  0.92416055300570  0.06343859319666
6   1.32348364355248  -0.49406793174206  0.01072979139967
6   0.26811419068464  -1.39465040977051  -0.03697227566223
6   -1.02796574349096  -0.85685308418225  0.05373260889893
6   -1.34698984260520  0.46804486317773  -0.03636798593016
1   -0.49344230617407  2.47835187868420  0.24396194710810
1   -2.41948881810253  0.76626867604078  0.19598674677824
1   -1.83632453907985  -1.67034662496905  0.15669326528038
1   0.47006912908555  -2.35702437617609  -0.16016619982152
1   2.28252636702396  -1.02024917014285  -0.03901837298418
1   1.85042783520967  1.60437312137388  0.02182034093296





