%nproc=4
%Mem=2Gb
# TD=(NStates=1) B3LYP/6-31G(d,p)  

ABSSPCT

0 1
6   -0.29954275517906  1.35633899179860  -0.05047411116119
6   1.07888992915747  0.90593816126449  -0.02372241158451
6   1.30372093649918  -0.45993545417962  0.04985115304355
6   0.26120248886643  -1.37446212723055  -0.00356442273956
6   -1.06690496526286  -0.88637027809821  -0.01338517983792
6   -1.32704905311553  0.45259674508056  0.00839710244164
1   -0.39188222202294  2.37278138222074  0.41775680485875
1   -2.27591209410280  0.98328007291695  0.11454906470122
1   -1.75495129955805  -1.57221812284850  0.08565403088183
1   0.52586948250039  -2.52343795711159  -0.10143548939431
1   2.40121983547332  -0.73708318051722  0.04934427635197
1   2.06120504131825  1.48197093474165  -0.05661414586415





