%nproc=4
%Mem=2Gb
# TD=(NStates=1) B3LYP/6-31G(d,p)  

ABSSPCT

0 1
6   -0.22938786428660  1.31482355401683  0.02470253943833
6   1.08698209169863  0.96664526713847  -0.03278160112084
6   1.29782453243675  -0.42438058280858  0.04618049996837
6   0.22430986153890  -1.40103398175611  -0.01720197146327
6   -1.07896134459015  -0.91826990532622  -0.03465434914560
6   -1.30009574035713  0.44768974660612  -0.00398622200134
1   -0.54585652061880  2.36342138352330  0.04491941625796
1   -2.31011864600743  0.89902162634618  0.16508050148430
1   -1.98882277670517  -1.47735761893327  0.04985845677554
1   0.44810719318207  -2.47727297807673  0.13287685789407
1   2.42329928942135  -0.79202822161818  0.02828907032532
1   1.97714128888435  1.66995913842839  -0.14108226321256





