%nproc=4
%Mem=2Gb
# TD=(NStates=1) B3LYP/6-31G(d,p)  

ABSSPCT

0 1
6   -0.24198609471019  1.32003229517196  0.05116782667635
6   1.06292430790641  0.89872339746801  -0.04394093328207
6   1.36632951718255  -0.43973362995358  -0.02132759655844
6   0.23411764373599  -1.29953223347370  0.00741990558069
6   -1.07509577053270  -0.94244219625650  0.00506837052647
6   -1.32663286060042  0.48463202956232  -0.05276558537317
1   -0.70862673367244  2.47188029708105  0.11102809060713
1   -2.27547469537748  0.98455031332088  0.03991446003610
1   -1.97024346470879  -1.74260496729401  0.09457055761274
1   0.39448590366648  -2.45254169876913  0.23485347758291
1   2.48074646270152  -1.04017249942453  -0.00406360205451
1   1.86567918901583  1.52185374060093  0.25052169066882





