%nproc=4
%Mem=2Gb
# TD=(NStates=1) B3LYP/6-31G(d,p)  

ABSSPCT

0 1
6   -0.25269448443153  1.31567645619400  0.00451185633254
6   1.07820264585889  0.91267555126641  -0.03909136591940
6   1.26451502117630  -0.45033624340379  0.00284397738978
6   0.25310653915016  -1.30456747377988  0.03541228093072
6   -1.05089100620816  -0.92416577734247  -0.04539791450788
6   -1.28961851528690  0.43369484591222  0.01495478750059
1   -0.29006057483650  2.54583298351372  -0.01781972474250
1   -2.41321150289416  0.85955232929205  0.21517895193879
1   -1.94212023611319  -1.49800572311508  -0.05882252405882
1   0.54282605797143  -2.41352954145206  0.04501210221935
1   2.21487487621704  -0.91577838141468  0.02661278286376
1   1.86742073430118  1.64494263306564  0.16357871877877





