%nproc=4
%Mem=2Gb
# TD=(NStates=1) B3LYP/6-31G(d,p)  

ABSSPCT

0 1
6   -0.27017252686997  1.42269615838810  -0.01811940722864
6   1.02370068671346  0.86657967325449  0.08555050284945
6   1.34967301044655  -0.50013304187909  -0.05605001908505
6   0.31064697917729  -1.39644769215341  -0.00696785809552
6   -1.03658813615173  -0.89939198270220  0.03936212324208
6   -1.34520455155468  0.51156329659691  -0.02794093530944
1   -0.61979426330138  2.56360289680455  -0.11234882438088
1   -2.43027616689861  0.62846780869035  -0.14794348322489
1   -2.00765154569530  -1.53383775602585  0.09805390280214
1   0.36395549039154  -2.44055335507127  0.05704711040564
1   2.29907944384249  -0.84163937502598  -0.20234664755840
1   2.02052460300762  1.56281366222926  0.04133287048694





