%nproc=4
%Mem=2Gb
# TD=(NStates=1) B3LYP/6-31G(d,p)  

ABSSPCT

0 1
6   -0.26030507966684  1.40987958941030  0.03927057174619
6   1.03318510304505  0.91648555857674  0.04024711641214
6   1.32549746687506  -0.46827187957320  -0.01896642659750
6   0.27570856125477  -1.46028387897152  -0.01968827311331
6   -1.05357538156251  -0.91223690608820  0.01299368615244
6   -1.32147653125160  0.49284935167382  -0.05827096032810
1   -0.28264924169951  2.45363717796339  -0.12320073990853
1   -2.40848339715818  0.79640866850937  -0.03548436716883
1   -1.92582844613543  -1.48999009845377  0.25721609448475
1   0.34172025901526  -2.48406026918334  0.10896135044744
1   2.51695498579642  -0.68296915725510  -0.12897470643659
1   1.80358519724971  1.69138820963758  -0.06429122837573





