%nproc=4
%Mem=2Gb
# TD=(NStates=1) B3LYP/6-31G(d,p)  

ABSSPCT

0 1
6   -0.27309627428232  1.31604606943589  -0.02453730055137
6   1.14235960151167  0.91213534468929  0.01791480174685
6   1.31987473691551  -0.46126993483211  0.00193173039773
6   0.21043932319538  -1.28400638652955  -0.00964546939832
6   -1.09670825517085  -0.91530077591850  -0.03451565667805
6   -1.31750420867222  0.44903885147583  0.05754983893373
1   -0.57581690987610  2.40113415864130  -0.26982855933640
1   -2.28744845018443  0.81144131392981  -0.02359744641876
1   -1.70733890210271  -1.74737770385622  0.13535523605442
1   0.41066044701312  -2.47473687642030  -0.09183126243085
1   2.40294266017619  -0.86955793712359  0.06906878939345
1   1.89749051071306  1.65167029385744  0.06831167023370





