%nproc=4
%Mem=2Gb
# TD=(NStates=1) B3LYP/6-31G(d,p)  

ABSSPCT

0 1
6   -0.27918296056540  1.37809638514314  0.04399111648579
6   1.03204253736402  0.91185382175489  -0.04020890237212
6   1.27520182406151  -0.46722836075894  0.03296804438974
6   0.28532315313200  -1.44899988148924  -0.00662570026076
6   -1.03835143587244  -0.87963834742816  0.00419931295802
6   -1.26781831857607  0.47835426072772  -0.00896191899439
1   -0.49714906176180  2.45484151431774  -0.32224875592045
1   -2.26529706431390  0.92313614940409  0.09198990719694
1   -1.84606322615286  -1.55397671276644  -0.02809565391436
1   0.40346950558065  -2.38253421222544  -0.20225540881069
1   2.32568879534658  -0.75424882939086  0.02951607164341
1   1.83220336307142  1.61025060648672  0.05112953569512





