%nproc=4
%Mem=2Gb
# TD=(NStates=1) B3LYP/6-31G(d,p)  

ABSSPCT

0 1
6   -0.23064576811468  1.34756574521570  -0.03824257586393
6   1.04666755773240  0.90178259948921  0.03267079335135
6   1.29883968849291  -0.44164417201205  0.04842061996707
6   0.26863794684137  -1.33113877282207  -0.06900723233621
6   -1.05984293661952  -0.90277217706956  0.02907933749448
6   -1.30295847009683  0.43209783815656  -0.01347698761354
1   -0.42518370299997  2.38014845738510  0.07857282318145
1   -2.23916777871362  0.81735584361442  0.07806912216543
1   -1.96059068726757  -1.52878498441651  0.18026466364258
1   0.33204282117963  -2.40961651444551  -0.01323875670906
1   2.25912157022663  -0.80656072822958  -0.02957190594817
1   1.79498095401569  1.50346354786215  -0.12738883755602





