%nproc=4
%Mem=2Gb
# TD=(NStates=1) B3LYP/6-31G(d,p)  

ABSSPCT

0 1
6   -0.23401538536968  1.36876573651184  -0.01541278785428
6   1.02529226088962  0.91432369886753  0.03065977230407
6   1.37762799455652  -0.46171689085784  -0.02594087470047
6   0.22284222448482  -1.37564099479069  0.01483353754522
6   -1.03611099807739  -0.94262556531138  -0.00015460777641
6   -1.35723429471975  0.48825760547623  -0.01940393023946
1   -0.38449105286656  2.56821164751351  -0.08333293311446
1   -2.37107048614491  0.85479608093507  0.13198588049770
1   -1.86980392378022  -1.64544665360377  0.09025306805792
1   0.43742933877778  -2.31437442846188  -0.03881595374532
1   2.36449554169356  -0.92319209856977  -0.06745087814741
1   1.88419743111051  1.53050767247240  0.13405772992726





