%nproc=4
%Mem=2Gb
# TD=(NStates=1) B3LYP/6-31G(d,p)  

ABSSPCT

0 1
6   -0.21916589786755  1.37425391733230  -0.01352794128872
6   1.05477670262055  0.89188055609003  -0.07794885536338
6   1.32397409203752  -0.44094439327400  0.06860367684185
6   0.26934208064953  -1.38404921053245  0.04621658242372
6   -1.07006689384890  -0.90491561319674  -0.10180958672552
6   -1.37179582665419  0.46661275630808  0.07763415887575
1   -0.28205827241428  2.48360458605728  0.13772663336533
1   -2.41477480529800  0.79159039603412  0.20543133600736
1   -1.97264971829619  -1.69806488274833  -0.07989301900249
1   0.53388748407403  -2.39996695719826  -0.19712892043930
1   2.38377737344807  -0.75105891343588  0.20452952861093
1   1.93621610726655  1.53355787086779  -0.17905885106995





