%nproc=4
%Mem=2Gb
# TD=(NStates=1) B3LYP/6-31G(d,p)  

ABSSPCT

0 1
6   -0.26118909743137  1.34739044181035  0.01930063068299
6   1.08248295159834  0.90919033569719  -0.02770144822615
6   1.39686602415713  -0.41903594954450  0.06270262137078
6   0.22861977768016  -1.43211436260677  -0.03023087065362
6   -1.09739207773968  -0.92811833356550  0.04042917727355
6   -1.33406740120346  0.50205074891188  0.02817590016223
1   -0.47036026885240  2.45608078551609  -0.34176976183156
1   -2.32072783320084  0.88844323831482  -0.06970021396375
1   -2.07928521700262  -1.59661720279323  -0.34008389373720
1   0.50631579661088  -2.40252805751124  -0.31524486805615
1   2.37675371854862  -0.74208739664398  -0.00033858434003
1   1.85335562889466  1.67105562303232  -0.19648243020569





