%nproc=4
%Mem=2Gb
# TD=(NStates=1) B3LYP/6-31G(d,p)  

ABSSPCT

0 1
6   -0.20444167334293  1.36939646770908  0.05221714327188
6   1.06661631727339  0.90832304606757  -0.05993046685156
6   1.27088897648611  -0.42545427817378  0.02317789685920
6   0.26180574262478  -1.34097419389123  0.01930189277681
6   -1.08318085633504  -0.96080572170792  -0.08529721619485
6   -1.33262466987783  0.47414924905457  0.06472946608461
1   -0.36433380197644  2.44709967263874  -0.13938811057273
1   -2.40001486166805  0.73174420656834  -0.05033238600098
1   -1.92666041376725  -1.67713074415095  -0.08374061089235
1   0.58382623491562  -2.46295552665535  0.16435595606119
1   2.30810629968697  -0.65827260924112  0.13959959546950
1   2.04603944657341  1.28982647709997  -0.16182760969291





