%nproc=4
%Mem=2Gb
# TD=(NStates=1) B3LYP/6-31G(d,p)  

ABSSPCT

0 1
6   -0.26357675312345  1.32953002655261  -0.00002786324806
6   1.06401321379368  0.90562917139133  0.01366206034861
6   1.23752876883446  -0.43798663798094  -0.04121241379041
6   0.24063327753887  -1.34849968986140  0.01420111415504
6   -0.99611700245532  -0.88285086324821  -0.00466272208358
6   -1.29785524913985  0.45435699226893  0.00207480763738
1   -0.28477746060204  2.47528757400070  0.07419342899637
1   -2.34721998477649  0.73979280492088  -0.04807978322718
1   -1.78732952278049  -1.55899108031110  -0.05158361654865
1   0.52724468141649  -2.47502104729097  0.17933803721737
1   2.19943967638504  -0.98527998244508  0.03721200826348
1   1.85359122962744  1.59970593410741  0.02379344966069





