%nproc=4
%Mem=2Gb
# TD=(NStates=1) B3LYP/6-31G(d,p)  

ABSSPCT

0 1
6   -0.26084107751608  1.34849533739758  -0.02943642123393
6   1.05685016960841  0.92077792224350  0.03713853622240
6   1.30358343555243  -0.43793433668843  -0.01965915587142
6   0.25557984903566  -1.33205946146338  -0.02186041125040
6   -1.03184633130377  -0.98398432891330  -0.03457589977075
6   -1.30960972440080  0.47301055321395  0.04502694688421
1   -0.23458653440384  2.42546182874314  -0.27253734166424
1   -2.30247067217206  0.99933116558080  0.02694336509560
1   -2.03586945480203  -1.54852007244557  0.13432531505477
1   0.36352857685633  -2.37789723337468  0.33632596215047
1   2.18336913925314  -0.93082733334158  -0.20101148880383
1   1.88065080175105  1.59693392073038  0.32604857315627





