%nproc=4
%Mem=2Gb
# TD=(NStates=1) B3LYP/6-31G(d,p)  

ABSSPCT

0 1
6   -0.26511062154238  1.37479987784155  0.00124747252224
6   1.07833251269229  0.94372483155753  0.01140732621446
6   1.34035558405833  -0.44127516530190  -0.01151976333627
6   0.23475145782020  -1.41237545000004  0.05479554364276
6   -1.06834874887733  -0.91360355081384  -0.01157307448111
6   -1.30879509477168  0.45082532769362  0.01181148812824
1   -0.48945935885127  2.54345442809927  0.09151590072504
1   -2.30932792287985  0.91472661918159  -0.17927358649108
1   -1.95305798498069  -1.70109156636519  -0.19630730795011
1   0.36306053824466  -2.55064552692905  -0.08897134477089
1   2.28048168043587  -0.82333479208202  -0.19992596549628
1   1.96719895943726  1.56705435810785  -0.17762087510622





