%nproc=4
%Mem=2Gb
# TD=(NStates=1) B3LYP/6-31G(d,p)  

ABSSPCT

0 1
6   -0.26067454324188  1.35630914943737  0.00220493800703
6   1.04108686138804  0.96316884681469  -0.01523672154156
6   1.33535299823125  -0.46995182808295  0.00710174900013
6   0.21853477856712  -1.38039224371959  0.03074560298494
6   -1.06601714030497  -0.89183649038227  -0.04056607945342
6   -1.30340962163366  0.42492147555098  0.02216617115014
1   -0.30192279697416  2.34104001781551  0.05946169715720
1   -2.20833332659908  0.83254154665547  0.00644435994840
1   -1.76605991511002  -1.48039107974162  -0.04042747609653
1   0.45822631886508  -2.47441792967106  0.01721996111319
1   2.25613389623970  -0.85038092384541  -0.03978703505289
1   1.93465465114894  1.60643565362335  -0.06047619419755





