%nproc=4
%Mem=2Gb
# TD=(NStates=1) B3LYP/6-31G(d,p)  

ABSSPCT

0 1
6   -0.23854440035069  1.38223931969617  0.03827090541163
6   1.00943398339581  0.91643892672180  -0.05380007908055
6   1.35197273183286  -0.46715206231405  -0.03634874843454
6   0.25160123782759  -1.35298010422280  0.04936705872523
6   -1.06337950885528  -0.90090278494852  0.02145510309448
6   -1.30176140211372  0.45649154628837  -0.03049087903036
1   -0.32395315921512  2.45656447138728  0.26379191427894
1   -2.43716300764201  0.67248023538568  -0.01129934553180
1   -1.82114752740308  -1.69312149641208  -0.35322964718016
1   0.29007418000357  -2.52104188135837  0.09997782220122
1   2.17792435408683  -0.90136643212138  0.10806334359253
1   1.93691340075317  1.58920432886427  0.03573946548093





