%nproc=4
%Mem=2Gb
# TD=(NStates=1) B3LYP/6-31G(d,p)  

ABSSPCT

0 1
6   -0.28209598226752  1.34656697609415  -0.08184492316078
6   1.09078482088921  0.94550183795326  0.02451144601485
6   1.31078903712790  -0.51023642143328  0.02457156629652
6   0.28100322248370  -1.37872239316603  -0.05273272366117
6   -1.07619679069944  -0.89067719781989  0.05535553507269
6   -1.32613340090119  0.47856468416853  0.04210056675428
1   -0.48111780247605  2.36535857379219  -0.04153237644335
1   -2.37981985312809  0.90483018721748  -0.08726474185042
1   -1.82634436099439  -1.53280705660573  -0.01007971569133
1   0.45753819053161  -2.45592748867236  -0.20796398553141
1   2.47007909267151  -0.91380191282263  -0.00364030544176
1   1.77918931288729  1.77151294687121  0.20828100292313





