%nproc=4
%Mem=2Gb
# TD=(NStates=1) B3LYP/6-31G(d,p)  

ABSSPCT

0 1
6   -0.25309026606694  1.36402791680812  -0.02134884091741
6   1.01534294874257  0.86042898919155  0.00795670163151
6   1.32274959657262  -0.44537547914905  -0.00870127890479
6   0.27354188484582  -1.39471834810078  -0.01779037937753
6   -1.04814993617509  -0.85857550081470  0.00367142312167
6   -1.29809602783262  0.44543035375066  -0.01284161602329
1   -0.46045006934055  2.46794168765390  0.07773181847896
1   -2.18140327256929  0.79553492438661  0.18639854213873
1   -1.87088484161080  -1.49851699996898  0.17971855037415
1   0.24986270165980  -2.42154680842630  -0.12854254277242
1   2.32287804919463  -0.67059425817868  0.34243220283649
1   1.83270958503708  1.65120959513749  -0.03025501511637





