%nproc=4
%Mem=2Gb
# TD=(NStates=1) B3LYP/6-31G(d,p)  

ABSSPCT

0 1
6   -0.22434126044268  1.43468271265511  0.00017209189443
6   0.97952839244382  0.83603255665868  -0.01589736514335
6   1.36293887396125  -0.46389581126859  0.09982822218629
6   0.27336354662161  -1.40704328986278  -0.07079253615541
6   -1.02626770243146  -0.91641980504752  -0.00242003897787
6   -1.37595286051472  0.52428504417248  0.00478381376020
1   -0.30621542193514  2.52167947624112  -0.24894262981242
1   -2.35875219318439  0.83808407505762  0.04341368014476
1   -1.88158298082312  -1.83386155749640  0.37122759170515
1   0.47821610533231  -2.50576742305901  -0.25039772385556
1   2.35060666479162  -0.78159650114414  -0.10574291701438
1   1.86634252867716  1.66692303184780  0.00515908221132





