%nproc=4
%Mem=2Gb
# TD=(NStates=1) B3LYP/6-31G(d,p)  

ABSSPCT

0 1
6   -0.17327261120775  1.30569603528430  -0.00506034795099
6   1.07036999200155  0.92938158267320  -0.02805280519318
6   1.35682729038018  -0.40783575415146  0.01370215881903
6   0.23369493345038  -1.33230339460802  -0.05130581717724
6   -1.08915573913957  -0.92140562443296  -0.00760251856642
6   -1.37543708180893  0.40064944150178  0.02501383122117
1   -0.37657498426558  2.42468960291737  0.02627028018095
1   -2.22367799204121  0.96493640349483  0.01398875369403
1   -2.04235611332768  -1.59775110832901  0.16710715139030
1   0.09052380485226  -2.49918385283139  0.16466904933327
1   2.44722558176990  -0.70154452950641  0.25488757726715
1   1.87654072566715  1.71423197539297  0.13348091780937





