%nproc=4
%Mem=2Gb
# TD=(NStates=1) B3LYP/6-31G(d,p)  

ABSSPCT

0 1
6   -0.23913322244377  1.39391779544701  -0.03480316203353
6   1.09630241063829  0.92810203864796  0.06382378396197
6   1.27643656246684  -0.41739504553186  -0.04152903074862
6   0.16345678181984  -1.42760465918426  -0.01835065032747
6   -0.99326663218908  -0.96077167272665  0.02129448926942
6   -1.28780298354455  0.49413772630330  0.02009647746849
1   -0.48327674439842  2.34225445246077  -0.03760385542749
1   -2.49499174995775  0.65657023955480  -0.19003713922807
1   -1.89838728238759  -1.49341788263574  0.00841146141105
1   0.60130965689893  -2.34124197296637  0.13178588026968
1   2.26594387300893  -0.88021893399922  -0.06105047511325
1   1.80409866803654  1.66296440857629  0.00550075755525





