%nproc=4
%Mem=2Gb
# TD=(NStates=1) B3LYP/6-31G(d,p)  

ABSSPCT

0 1
6   -0.24636164832975  1.34288323491929  -0.06577918789796
6   1.08095925600693  0.96966051460599  0.02849850318405
6   1.31313792702585  -0.49810434907151  0.03971481444173
6   0.24777517700924  -1.36575467626576  -0.07687746892920
6   -1.05023914449499  -0.86977387042385  0.02724039112675
6   -1.35019169288207  0.42781901629078  0.04484789861492
1   -0.46215941976746  2.43350496713607  -0.12724045235985
1   -2.43722795529072  0.75485614533073  0.04349067721013
1   -1.92250923320131  -1.61707521775262  0.06584508208461
1   0.44709642775642  -2.32171578732763  -0.05584410794650
1   2.37612666436829  -0.88950907490242  0.07965874196132
1   2.04640346231866  1.52615866026668  0.05623461684755





