%nproc=4
%Mem=2Gb
# TD=(NStates=1) B3LYP/6-31G(d,p)  

ABSSPCT

0 1
6   -0.21688772814761  1.37716259054851  -0.04660774782113
6   1.03292649275420  0.89050465046741  -0.01276066677905
6   1.29091954956155  -0.41722406304896  0.03540827438053
6   0.27216908400472  -1.40877518971815  0.01856425254241
6   -1.08891564200464  -0.95302670344255  -0.05750307667812
6   -1.30605388275565  0.49634059102112  0.05336105948532
1   -0.46852648432585  2.46252394593893  0.17073397078300
1   -2.45699249854876  0.83341688536173  0.16804886838695
1   -1.81856718207166  -1.57969483376678  -0.08566848825346
1   0.47958852876410  -2.41882653811837  0.04180423647927
1   2.40517000070026  -0.66140001856065  -0.01410616981924
1   2.07458025629420  1.46661542271724  -0.07815443534363





