%nproc=4
%Mem=2Gb
# TD=(NStates=1) B3LYP/6-31G(d,p)  

ABSSPCT

0 1
6   -0.24395320484262  1.33995389555657  -0.03944174203818
6   1.07198348592987  0.93978924178591  0.00112426988780
6   1.25796891723133  -0.44140281183213  0.04220043474051
6   0.23159461491638  -1.37763116328568  0.02351670941879
6   -1.05078161748200  -0.88572093155245  -0.08493315616868
6   -1.27134990506321  0.42672805037738  0.04998729707750
1   -0.56772026788948  2.41140548996011  0.10831192540840
1   -2.08597350453951  0.85353746265377  0.19624281529391
1   -1.92462406946329  -1.63905609583205  0.11029111450038
1   0.55672082445943  -2.34928552605211  -0.06049100665833
1   2.17972012320336  -0.94537948972844  0.00712297213002
1   1.91087436721811  1.65279271179261  -0.19941417866078





