%nproc=4
%Mem=2Gb
# TD=(NStates=1) B3LYP/6-31G(d,p)  

ABSSPCT

0 1
6   -0.23210666092771  1.41509585638355  -0.01500741766793
6   1.08410754517083  0.95390211744020  -0.02502055522602
6   1.25823337781053  -0.54165238640167  0.03919987297911
6   0.24192578117695  -1.37004602551808  -0.04109512287858
6   -1.03699984295235  -0.95602265252849  -0.01907200083565
6   -1.30716926722871  0.45220706601557  0.05372727182950
1   -0.65241835564351  2.45697991317967  -0.12942465381829
1   -2.24426877797430  0.92025754748727  0.02623781584182
1   -2.04778765982719  -1.54006714233083  0.04647174539677
1   0.64401862433269  -2.30577820467841  -0.00935053463061
1   2.40762321221181  -0.69019705800943  0.17404341443098
1   1.85492083364228  1.69624578429816  0.03277248839599





