%nproc=4
%Mem=2Gb
# TD=(NStates=1) B3LYP/6-31G(d,p)  

ABSSPCT

0 1
6   -0.25961637749079  1.34505318541331  -0.06410238091611
6   1.01216727525315  0.84436110274194  0.02350154279595
6   1.34891973042956  -0.46857406377360  0.05239172147208
6   0.26888968384948  -1.33924438708289  -0.05111654644279
6   -1.01123641176331  -0.89670921574634  -0.05852735506417
6   -1.36567088653927  0.50255790594425  0.08946064004485
1   -0.40515997301115  2.34738969487057  -0.07843865865782
1   -2.47412277361724  1.03975464332731  0.10235420357793
1   -1.90910492503906  -1.49747024276129  0.17567224620662
1   0.62990558231730  -2.45549237614837  -0.01256371980006
1   2.36154776653818  -0.87147416458464  0.20207180718948
1   1.86919047792274  1.60783675884196  -0.20288618133249





