%nproc=4
%Mem=2Gb
# TD=(NStates=1) B3LYP/6-31G(d,p)  

ABSSPCT

0 1
6   -0.27433983707758  1.38982729186749  0.02636521738027
6   1.04473289994257  0.90430895071740  -0.00612742375480
6   1.28104804427068  -0.47138590173837  -0.00556563739380
6   0.24132105389210  -1.41343653820907  -0.00451139721977
6   -0.96411564699013  -0.92730860003956  0.04772532479291
6   -1.33484423576677  0.48887847090653  -0.05702127889732
1   -0.48346977162405  2.48913154148757  0.09670413499603
1   -2.36170566932653  1.02102773567643  -0.05084847100204
1   -1.95441348629699  -1.55410208481658  0.02003105105747
1   0.46498245068315  -2.45518530889916  -0.10021497842411
1   2.40392747945625  -0.81978059265342  0.00883026844927
1   2.03155055556448  1.62610919247080  -0.02744226168941





