%nproc=4
%Mem=2Gb
# TD=(NStates=1) B3LYP/6-31G(d,p)  

ABSSPCT

0 1
6   -0.27373365100786  1.36052377727588  -0.06970707191370
6   1.07935711915568  0.89930187633010  -0.00010235077016
6   1.32076580220524  -0.49945132216545  0.04952012370807
6   0.23970787979877  -1.33072725961332  -0.04730794191071
6   -1.00886929249448  -0.87867326507824  -0.00235151518438
6   -1.34936487323954  0.47427095617949  0.05728857118353
1   -0.44997297664995  2.53565214277667  0.00907625639218
1   -2.40827416041781  0.68950219225133  0.08174047195635
1   -1.86411199270582  -1.74774523915026  0.08120527499458
1   0.46396593401885  -2.41157915268269  -0.14749915407151
1   2.29274148080138  -0.92394734758595  0.14029364159163
1   1.85636583484592  1.56100446982710  0.05527233939498





