%nproc=4
%Mem=2Gb
# TD=(NStates=1) B3LYP/6-31G(d,p)  

ABSSPCT

0 1
6   -0.25938574804212  1.41537099882346  -0.02327384087621
6   1.02975213621373  0.89443417330252  0.03148462478059
6   1.31171156779436  -0.50776127486309  -0.00696671966935
6   0.26790687974964  -1.38533787691758  -0.03594417954134
6   -1.03575913441799  -0.87008530541734  0.04558848298128
6   -1.31221695592317  0.46716828595044  -0.01299087051007
1   -0.70955295417898  2.37915434954827  -0.07438490197504
1   -2.34785639942581  0.78301547561196  -0.04104397288891
1   -1.85152946158523  -1.55881896919455  0.02620571128991
1   0.56102711312103  -2.42854560273221  0.07265854667136
1   2.38834023556232  -0.79398059489650  -0.14481113200754
1   1.91292483346958  1.43478762222878  0.18159671491930





