%nproc=4
%Mem=2Gb
# TD=(NStates=1) B3LYP/6-31G(d,p)  

ABSSPCT

0 1
6   -0.22770864087041  1.39553167929660  -0.01298162502008
6   1.08305948574625  0.94031263240770  0.02056183205943
6   1.29738445266590  -0.46920439862940  -0.03885298899062
6   0.22356418042613  -1.36747908611737  0.01727849992155
6   -1.06790470409531  -0.93808420891250  -0.05264573885580
6   -1.31834059918644  0.40604887698957  0.05758422386337
1   -0.53721485277908  2.43775889288318  -0.12399183462284
1   -2.40805125245889  0.97133559576340  -0.13688975913472
1   -1.76257526574190  -1.62930206313974  0.09090485906077
1   0.28464399198032  -2.47400032361130  0.21528442748002
1   2.38374110005993  -0.63746427723223  -0.03849245294660
1   2.13535764844886  1.59702377427294  0.14742145578658





