%nproc=4
%Mem=2Gb
# TD=(NStates=1) B3LYP/6-31G(d,p)  

ABSSPCT

0 1
6   -0.25131484527044  1.39245510208333  -0.00993735065049
6   1.07073975911445  0.93729220193270  0.05724230444140
6   1.28701647498968  -0.49037022851703  -0.03438561634790
6   0.28720429397667  -1.44189054407445  0.03553456596148
6   -1.06807677017127  -0.88623120623401  -0.02981489642994
6   -1.35825551347119  0.48308682506777  -0.02724224091265
1   -0.35842308537644  2.47868050055653  -0.10764692688082
1   -2.34186884483219  0.83248252120330  0.30804097178247
1   -1.70957122703897  -1.77025284178487  -0.02843382774065
1   0.40374920792241  -2.49394668961667  0.12676074608159
1   2.43950384202793  -0.66945266647635  -0.17200181112709
1   1.96776300971217  1.61544024709381  -0.05520588600609





