%nproc=4
%Mem=2Gb
# TD=(NStates=1) B3LYP/6-31G(d,p)  

ABSSPCT

0 1
6   -0.21000593804497  1.43413738962840  -0.00090002309261
6   1.02993473745178  0.91685940700429  0.00968758003788
6   1.34844985927228  -0.43670793094628  0.01250749148556
6   0.25584403030472  -1.38378392646604  -0.00337850762584
6   -1.10456586862985  -1.00313775336661  -0.04169035072604
6   -1.30260791416675  0.49784499803272  0.00817795649057
1   -0.59770114300933  2.53461772745860  0.05179685052975
1   -2.35045023986898  0.74785467920160  0.08219571903724
1   -1.96036627952286  -1.54751656673738  0.12746497017228
1   0.48866796070948  -2.53826083022925  0.11745729795913
1   2.34176809412664  -1.02349698988011  0.01080231596443
1   1.87592490351888  1.57896802811307  -0.15100931537453





