%nproc=4
%Mem=2Gb
# TD=(NStates=1) B3LYP/6-31G(d,p)  

ABSSPCT

0 1
6   -0.25945044131941  1.41391480100100  0.02375405555878
6   1.06804031547133  0.88775342307324  -0.03148864352599
6   1.32143562402900  -0.44679076314399  -0.01924104724184
6   0.28335506731555  -1.38035407998712  0.00138216108233
6   -1.11727960734063  -0.93632370390529  0.01490127477048
6   -1.28124103101726  0.45236496601019  0.01750723234673
1   -0.42287827327863  2.51210874036548  0.05028303326864
1   -2.30317347630533  0.89884348666015  -0.25209302151752
1   -1.83386786094349  -1.59818647074386  -0.12501478776595
1   0.45094912176908  -2.45069343759014  0.10172007746294
1   2.26040610052496  -0.93386190429383  0.08009573927634
1   1.68726805356347  1.71392065277466  0.07271482079664





