%nproc=4
%Mem=2Gb
# TD=(NStates=1) B3LYP/6-31G(d,p)  

ABSSPCT

0 1
6   -0.28767766504263  1.34831426222164  -0.00328687648687
6   1.04428328563531  0.85142175730433  0.05083188872380
6   1.30257389659614  -0.45907581944525  -0.06635326527565
6   0.27884907376915  -1.39966600735333  0.01619618877293
6   -1.03794242546538  -0.87449540268575  0.03898441432453
6   -1.30399687317071  0.49399721903126  -0.03510224895879
1   -0.50676401988956  2.53456139879089  0.11835169553138
1   -2.31578644093158  1.01403806166010  -0.16838797631479
1   -1.76968687975007  -1.68851852367191  0.05195602673877
1   0.41955798744552  -2.38518479012036  -0.09243864927170
1   2.42149070345693  -0.71049034056427  0.11842609692205
1   1.85687188352784  1.62415390484721  -0.11146092811084





