%nproc=4
%Mem=2Gb
# TD=(NStates=1) B3LYP/6-31G(d,p)  

ABSSPCT

0 1
6   -0.27458487565704  1.31823479332541  -0.01711523499143
6   1.08074922298818  0.89727373474979  0.02614650770269
6   1.26300449663077  -0.42067200549947  -0.02464508342592
6   0.22287441841689  -1.32290838660175  -0.00876441483455
6   -1.02609214133818  -0.88671808099836  0.06437363646507
6   -1.24789323476959  0.42907832211738  -0.02576808383495
1   -0.64243171503395  2.38951339920308  0.21480163205129
1   -2.20167977451210  0.81581550260996  -0.18716000181514
1   -1.97534093583454  -1.62568341953894  -0.12500248898729
1   0.44864188577535  -2.32264008226521  -0.02955268726192
1   2.14375366971992  -1.04721904700767  -0.01024228676313
1   1.99829116721902  1.62939054332849  -0.07036654617567





