%nproc=4
%Mem=2Gb
# TD=(NStates=1) B3LYP/6-31G(d,p)  

ABSSPCT

0 1
6   -0.26253986655669  1.33190197204050  0.00415782437846
6   1.07871399548403  0.92020284741189  0.03545094254526
6   1.33398713324097  -0.49378398927464  -0.03711636245757
6   0.22717116345931  -1.30776674026735  -0.02093352291046
6   -1.07380285701377  -0.91362695849719  -0.01249463763135
6   -1.28931717738958  0.46068274584022  -0.00370825351193
1   -0.52348566060475  2.58997260733666  -0.20893826220942
1   -2.36116079176356  0.59939902474139  0.08034832620915
1   -1.92270162344404  -1.71493717589949  0.23357569737836
1   0.34525613847168  -2.27045648936656  0.08863894898157
1   2.34896494831416  -0.78993755327714  0.17381379818290
1   1.96723537011604  1.56517627743807  0.05694395164265





