%nproc=4
%Mem=2Gb
# TD=(NStates=1) B3LYP/6-31G(d,p)  

ABSSPCT

0 1
6   -0.27698164422174  1.36039379059387  -0.02641993616340
6   0.98484225362163  0.88534281014845  0.02260194823544
6   1.30168751470634  -0.42164400126876  -0.01173494376651
6   0.24543552975630  -1.37750784368885  -0.04401653493805
6   -1.04562157494214  -0.92058012635843  0.00316054756240
6   -1.19665175440379  0.46628819688702  -0.00324612122166
1   -0.35575266603011  2.46226938088384  -0.08864186737032
1   -2.42906109390677  0.87635737020139  0.24958026030006
1   -1.96374290864775  -1.52840764203714  0.19043034825075
1   0.30658112051784  -2.49668312479288  0.05064092090833
1   2.37249619324919  -0.81582874004154  0.28519533447327
1   1.90936481960571  1.60747420179995  0.08967639359302





