%nproc=4
%Mem=2Gb
# TD=(NStates=1) B3LYP/6-31G(d,p)  

ABSSPCT

0 1
6   -0.24196003671282  1.35755195928239  -0.01040930236539
6   1.08298424701264  0.91077692629002  -0.05440272226418
6   1.28850630837355  -0.45861240289294  0.06647564130616
6   0.22663686073800  -1.33368609098122  -0.04535497206582
6   -1.03522749224222  -0.94495439167362  -0.00588315311695
6   -1.31728460205531  0.45177663010722  0.05104864107027
1   -0.50101885605543  2.50371424985923  0.14635041609760
1   -2.26371152276969  0.86347229102415  -0.03355099588399
1   -1.73256569758725  -1.65539357625201  -0.13750578060409
1   0.26217170437658  -2.38817175008793  0.05433127077075
1   2.30507690238451  -0.74304923712023  0.18445583807691
1   1.90579218350726  1.54164717022976  -0.14513598629877





