%nproc=4
%Mem=2Gb
# TD=(NStates=1) B3LYP/6-31G(d,p)  

ABSSPCT

0 1
6   -0.25430091744751  1.33273527564829  0.03201281790482
6   1.11670231390994  0.94915363425671  0.03966188961832
6   1.32454936985155  -0.42459867227712  -0.05246571079514
6   0.25038874180685  -1.38609415823573  -0.00418069507954
6   -1.09077011619995  -0.92580766104180  0.02405593623675
6   -1.33860472573029  0.45796295514625  -0.04103718004491
1   -0.35365511693626  2.44483693639860  -0.21658128939070
1   -2.32613209662651  0.86539442544243  -0.06594661378539
1   -1.91462981294558  -1.64001516121241  0.09682566501971
1   0.45499431259599  -2.32083693782352  0.13874586012669
1   2.21802213292980  -0.92730491795138  -0.10384696907330
1   1.84800338984040  1.54314790987067  0.11507764982601





