%nproc=4
%Mem=2Gb
# TD=(NStates=1) B3LYP/6-31G(d,p)  

ABSSPCT

0 1
6   -0.24829642365969  1.34863652505452  0.02088980787503
6   1.05038767779891  0.92710975828900  -0.04171732531779
6   1.34017082744526  -0.48632360549478  -0.00174687273006
6   0.23467559348206  -1.38283069329920  0.02535207958310
6   -1.04735230558898  -0.85601456372183  0.03243049703976
6   -1.33503531347812  0.45838335713316  -0.06476658041069
1   -0.39439778993282  2.44338789990858  0.19587434842616
1   -2.25131879933815  0.75814451691381  0.03195499100836
1   -1.92557125103596  -1.75895047819392  0.10100546227908
1   0.36575501496428  -2.55341407810000  -0.15459928314927
1   2.38287726159590  -0.74909301949629  -0.06799122424570
1   1.87502664517735  1.77473082875518  0.26148233110704





