%nproc=4
%Mem=2Gb
# TD=(NStates=1) B3LYP/6-31G(d,p)  

ABSSPCT

0 1
6   -0.22438861925661  1.30349833839844  -0.02934532849682
6   1.09931700244663  0.91340705419142  0.02512312447775
6   1.29936468428984  -0.42097743581796  -0.02766886164540
6   0.28000552401512  -1.33544004442931  -0.02268859054311
6   -1.09901295697643  -0.95490566539957  0.02731081777790
6   -1.36841132033068  0.46524045523466  0.01541998351065
1   -0.34560955974411  2.44668973308233  -0.03097598870751
1   -2.29044836535048  1.05192244984528  -0.03072870880597
1   -1.82645001454568  -1.60726994176240  -0.10063428866389
1   0.54906695086629  -2.35863395829640  0.16864784592740
1   2.09352167682149  -0.77421112354157  0.00675652014246
1   2.00659282549709  1.51424654167250  0.15105491093380





