%nproc=4
%Mem=2Gb
# TD=(NStates=1) B3LYP/6-31G(d,p)  

ABSSPCT

0 1
6   -0.26954450775022  1.45917156355674  0.02235217926698
6   1.05005272068835  0.94156229574654  -0.02395988357427
6   1.26441630110767  -0.46053173493936  -0.02320873001674
6   0.28278480944162  -1.45114026275872  0.02726584773419
6   -1.03479745963163  -0.88607127056102  0.05693682647086
6   -1.30152531751932  0.44583613416268  -0.03192086732664
1   -0.42550760440385  2.53634024702040  0.02559595681143
1   -2.33855535972100  0.63909952376554  -0.21069439605771
1   -1.98238861832982  -1.56270043402073  -0.06807549484897
1   0.50884681595568  -2.53767625035160  -0.35383898178050
1   2.40578960909579  -0.97749684323137  0.06952431913262
1   1.91935688963562  1.36882566721657  0.10284679046775





