%nproc=4
%Mem=2Gb
# TD=(NStates=1) B3LYP/6-31G(d,p)  

ABSSPCT

0 1
6   -0.25098410391111  1.39199198872459  0.00360722172542
6   1.08528628607960  0.95053340217348  0.03314129224241
6   1.27908438069456  -0.40697690785520  0.02540387091152
6   0.23880136319129  -1.43424081688486  -0.02449048683667
6   -1.11984324046857  -0.92837064485364  -0.00512803892177
6   -1.23815307280803  0.42162691849849  0.00110421605695
1   -0.41349235590381  2.50790244307643  -0.23506975638634
1   -2.26639735988537  0.90973472017525  -0.09903862337991
1   -1.89295272765589  -1.59095750248542  0.23266935048693
1   0.54911643138791  -2.56401105613468  -0.09899201362458
1   2.23135322164794  -0.73139827327608  -0.20244234533724
1   1.85604852296330  1.52990257426576  -0.05607738412758





