%nproc=4
%Mem=2Gb
# TD=(NStates=1) B3LYP/6-31G(d,p)  

ABSSPCT

0 1
6   -0.25340424362351  1.36668064102164  -0.02116867880967
6   1.08340825877427  0.95776644979462  -0.02753093843452
6   1.32937914504114  -0.46081097644335  0.05570228423397
6   0.23702983185078  -1.38516065997977  -0.04217439979289
6   -1.08737721021601  -0.93044682348777  0.05887401057265
6   -1.29421969091113  0.44035475849378  -0.02620455209034
1   -0.49590111016397  2.38915578043466  0.25536248811009
1   -2.39544338866454  0.87106817645328  -0.11355320163736
1   -2.02888376367148  -1.57975349407786  0.08768984181323
1   0.38511657470865  -2.37941410787868  -0.15239104220528
1   2.35410412215905  -0.82315277045748  -0.11163889068256
1   1.99985005980174  1.65545060224073  0.10560491178661





