%nproc=4
%Mem=2Gb
# TD=(NStates=1) B3LYP/6-31G(d,p)  

ABSSPCT

0 1
6   -0.25653768830137  1.38845930557226  -0.01855871198850
6   1.12432006424729  0.96368204655372  0.08596008136280
6   1.34928134271004  -0.47679789789879  -0.02298374693895
6   0.21108540442660  -1.38523617950631  -0.05111397628576
6   -1.08651257676189  -0.94970144951615  0.08254221572635
6   -1.33800059199135  0.43707334038812  -0.09534563466394
1   -0.42639644471651  2.39867444141417  0.15581295146200
1   -2.23892025259628  0.95224168284741  -0.00776395267862
1   -1.99035361997919  -1.58885843917931  0.27358346625388
1   0.39605294766794  -2.50021578212996  -0.00787251876579
1   2.43912635752093  -0.80550447615904  -0.10003924190994
1   1.78661256655991  1.85580606092710  -0.11521509298013





