%nproc=4
%Mem=2Gb
# TD=(NStates=1) B3LYP/6-31G(d,p)  

ABSSPCT

0 1
6   -0.21818885140556  1.33195680046504  -0.03148330926571
6   1.07997053791196  0.95461131191916  0.02210597703387
6   1.26902612666424  -0.43787975307439  0.01289963426084
6   0.23151788531428  -1.37539316503944  0.00826509431253
6   -1.08708354140955  -0.90421242424732  -0.09734033040836
6   -1.26772905770661  0.41385979013997  0.07872462136751
1   -0.45268507515002  2.49664723689898  -0.12358420860513
1   -2.29354196520991  0.86867240855140  0.08639318197561
1   -1.96065285450264  -1.59413126253951  0.20389843863494
1   0.53635602626933  -2.38742859130200  0.01331300605001
1   2.31461161290939  -0.93444509573949  0.12937959310852
1   1.79929797676863  1.78776143723796  -0.17201121273787





