%nproc=4
%Mem=2Gb
# TD=(NStates=1) B3LYP/6-31G(d,p)  

ABSSPCT

0 1
6   -0.23757744922076  1.34239401525087  0.01726375466203
6   1.09190559285981  0.89942042840765  -0.01584607915922
6   1.29389565023752  -0.39665421931781  -0.04049530959399
6   0.21212141650406  -1.39655206750690  0.01286078104033
6   -1.08064977856423  -0.90683829697309  0.01149978522172
6   -1.32732244632053  0.45194057295605  -0.00380778154675
1   -0.20768907014638  2.55370147364387  0.13869066707499
1   -2.31615517595301  0.85599501104855  0.01168587042412
1   -1.84115695837367  -1.77207801867561  -0.26455077400963
1   0.62513731327959  -2.49391956082337  0.20296144760444
1   2.43699938026064  -0.72981991485839  0.21330901273434
1   1.90591912164716  1.64202574749430  -0.05864152223010





