%nproc=4
%Mem=2Gb
# TD=(NStates=1) B3LYP/6-31G(d,p)  

ABSSPCT

0 1
6   -0.26276411600750  1.34635642313101  0.04035411565842
6   1.02046275432295  0.84397656556686  -0.10606063523743
6   1.37465310919098  -0.41420692008600  0.09042939175571
6   0.28797470829392  -1.39192195525130  -0.01733641049931
6   -1.04942894543641  -0.87147485622125  -0.05770840830120
6   -1.34824930033050  0.48909401022520  0.08743508342795
1   -0.32535776238865  2.55596817840920  -0.10206651310488
1   -2.35435050195936  0.79873138624899  -0.08248026792373
1   -1.95471016548651  -1.55416983939201  -0.19636775524936
1   0.31520894868928  -2.48877641882564  -0.03382143785209
1   2.30396030093158  -0.89661589691576  0.20792490431942
1   1.77893675817018  1.60683875226942  -0.19456858066281





