%nproc=4
%Mem=2Gb
# TD=(NStates=1) B3LYP/6-31G(d,p)  

ABSSPCT

0 1
6   -0.24012158136431  1.38260987236491  -0.00887934591979
6   1.05704754261682  0.89093235687885  -0.05034091886261
6   1.33948596094208  -0.47851610709664  0.03502825225375
6   0.23970779893435  -1.32818542612474  -0.03383158365458
6   -1.06197882880621  -0.93820520859918  -0.01619053886566
6   -1.33252051574498  0.50906273925696  0.08368366934775
1   -0.51346232232250  2.38360269470878  0.03329566846247
1   -2.40920828321056  0.69788718717715  -0.09886177451134
1   -1.81005345320956  -1.71857564164046  -0.19424346582376
1   0.48421060943288  -2.45370061795730  -0.04435446711009
1   2.40640476033779  -0.98520899945234  0.45887014698986
1   1.79469367676089  1.67668313206699  -0.22214484629510





