%nproc=4
%Mem=2Gb
# TD=(NStates=1) B3LYP/6-31G(d,p)  

ABSSPCT

0 1
6   -0.22245667694202  1.38316714839473  -0.05259206759182
6   1.01735843468034  0.92711633047375  0.00691715529145
6   1.29770876573695  -0.50397295141751  0.04389282508599
6   0.24943592545729  -1.32523733451974  -0.04423782245924
6   -1.06523281211860  -0.88346824701500  -0.01027324595952
6   -1.29090485158854  0.42285244465404  0.06677246914415
1   -0.33399129716072  2.40989735830904  -0.11025694548048
1   -2.31624870920128  0.74025785590988  -0.05924049313197
1   -1.81150716569850  -1.76436136173890  0.13627104482626
1   0.47767941929860  -2.43775944220226  -0.18025646520281
1   2.21460433367018  -0.85985965040748  0.10675544097990
1   1.89008731881495  1.66667008900171  0.00798351714921





