%nproc=4
%Mem=2Gb
# TD=(NStates=1) B3LYP/6-31G(d,p)  

ABSSPCT

0 1
6   -0.23849440354379  1.35542328135034  0.09276825074081
6   1.06759610281015  0.90560119302431  -0.01774597038529
6   1.36171935426496  -0.45990390114144  -0.02130457927004
6   0.28068027829917  -1.39944369012374  -0.01971297564751
6   -1.09101076439342  -0.91740367129279  0.06891486656622
6   -1.38824699120133  0.48578012770490  -0.09110598212618
1   -0.16645906775948  2.52659084225286  0.05294247924377
1   -2.24846601755300  0.86304389362435  -0.22457878458993
1   -2.01830357205256  -1.58918792831752  -0.02874085478479
1   0.62407330684960  -2.30139426700893  0.13219890323555
1   2.26915064085796  -0.73552646978129  -0.02178685797238
1   1.71753517578638  1.62368751606597  -0.11983842624767





