%nproc=4
%Mem=2Gb
# TD=(NStates=1) B3LYP/6-31G(d,p)  

ABSSPCT

0 1
6   -0.29134664513665  1.47987530996857  -0.02510065088786
6   1.14420315587809  0.96620101584337  0.08301854811178
6   1.24767029293894  -0.46302032874825  -0.06328152648199
6   0.23011274270946  -1.42687855605394  -0.00656548685343
6   -1.02399273133983  -0.99588960045317  0.02361675664716
6   -1.30335762325824  0.45666300136992  -0.00954271677618
1   -0.55468033425689  2.55065025114431  -0.15887495146266
1   -2.48553462830989  0.77520794701732  0.00784698141911
1   -1.79905191850035  -1.44048510230011  0.03467007438672
1   0.50076592410593  -2.56273066793860  0.00461603794971
1   2.26322112619327  -1.03680300479755  0.07931183862855
1   1.98462186894443  1.51720935262145  -0.06747919997510





