%nproc=4
%Mem=2Gb
# TD=(NStates=1) B3LYP/6-31G(d,p)  

ABSSPCT

0 1
6   -0.22380665042269  1.35726288128070  0.08310293361915
6   1.02463426288969  0.89371686290760  0.01343500973335
6   1.29948154279919  -0.40386244222492  -0.09694743887241
6   0.25421343539421  -1.37032164038610  0.07348659311959
6   -1.10120367172487  -0.90339950414066  -0.01555747515352
6   -1.24029846320964  0.43770593568048  -0.07488417442157
1   -0.37454442467629  2.40733837500421  0.22139698693889
1   -2.36227193039562  0.95130302354655  -0.13214747617517
1   -1.84649410494218  -1.82657775079618  -0.01217598233230
1   0.36913854329940  -2.36573177389224  0.28141619267827
1   2.33900141437070  -0.95640203848715  0.01948576921079
1   1.73192371508701  1.66664747974022  -0.20292645873751





