%nproc=4
%Mem=2Gb
# TD=(NStates=1) B3LYP/6-31G(d,p)  

ABSSPCT

0 1
6   -0.29503450917520  1.35507163794196  -0.04966863731337
6   1.09158201416762  0.90123659219342  -0.02837186639469
6   1.27143762318657  -0.49050537270553  0.02172413512149
6   0.24137357483723  -1.38994603534133  0.06576687597244
6   -1.02250661652262  -0.86472682279117  -0.04244459768415
6   -1.32669824385447  0.44928930342649  0.06003114131481
1   -0.24169960885483  2.38809667827118  0.08445416428371
1   -2.25523400583673  0.86550069404342  0.10606360745093
1   -1.85289248777351  -1.49079966714686  -0.24944819541561
1   0.63941274464403  -2.37087312257806  -0.27070190155046
1   2.39364250992359  -0.67576015935642  -0.05494897538311
1   1.81914057302115  1.76541518731608  0.05301693928512





