%nproc=4
%Mem=2Gb
# TD=(NStates=1) B3LYP/6-31G(d,p)  

ABSSPCT

0 1
6   -0.24333667453321  1.36772928371214  -0.07462812945985
6   1.04147381664515  0.94963908076630  0.00519200749496
6   1.37230902734156  -0.48102160339849  0.07518650854375
6   0.24626139439413  -1.44964790982493  -0.09029406929050
6   -1.05966708829258  -0.90323509922429  -0.00042896977077
6   -1.34491842446166  0.50266889308113  0.04213326408193
1   -0.41765789678659  2.47012823180033  -0.10862219828137
1   -2.34094085174414  0.83261890592164  0.44348821705093
1   -1.91695177097249  -1.60101607329785  0.00567459433713
1   0.47486428652096  -2.41418915897841  0.08792293893133
1   2.30147770076127  -0.75353196763915  0.13579989148723
1   1.78139688774543  1.64446419215540  0.06825058979945





