%nproc=4
%Mem=2Gb
# TD=(NStates=1) B3LYP/6-31G(d,p)  

ABSSPCT

0 1
6   -0.27331293297113  1.31093647719681  0.00688808790122
6   1.05669309355979  0.88102935991798  0.00673142237346
6   1.30631465254395  -0.46890885025835  0.03433391164929
6   0.25528498889709  -1.30217800745935  -0.04187541110010
6   -1.03593301654100  -0.86022409473372  -0.03255929307951
6   -1.33449042422451  0.46018916953460  0.01497037672403
1   -0.40535627638425  2.38842950123149  -0.23066545850013
1   -2.34658438273938  0.77139298040510  0.19644991593179
1   -1.83267237239318  -1.70259554978388  0.14746964158549
1   0.52812930258608  -2.26506139646311  0.07010304449947
1   2.35639821665197  -0.90306766954283  0.09827773547326
1   1.99960230269572  1.42119518852262  -0.11840899562951





