%nproc=4
%Mem=2Gb
# TD=(NStates=1) B3LYP/6-31G(d,p)  

ABSSPCT

0 1
6   -0.23880877376147  1.37531182437601  -0.00647332349407
6   1.05393025024120  0.92453146497559  -0.03731975071030
6   1.38201832623737  -0.47311678826281  0.01162286174152
6   0.23131825839301  -1.33815120568763  0.01015928061319
6   -1.06711236790897  -0.89194716882208  -0.03838255554523
6   -1.37342195489486  0.43462584619218  0.10145853369138
1   -0.29336536723123  2.39959577076006  -0.22322936807736
1   -2.31915119896886  0.68390340624504  -0.16834177096418
1   -1.82797750987599  -1.53785029459441  -0.21810971178086
1   0.43437104841120  -2.42710290782752  -0.08179459607063
1   2.34323434489270  -0.98031820074521  0.16690718040141
1   1.77611725293047  1.54527328606326  0.01386458120829





