%nproc=4
%Mem=2Gb
# TD=(NStates=1) B3LYP/6-31G(d,p)  

ABSSPCT

0 1
6   -0.29417938079342  1.35414967607402  -0.01860210940397
6   1.04811963319215  0.91592163569489  0.00447167442270
6   1.37578630340058  -0.47171097182515  -0.00498569939951
6   0.23159019699025  -1.38490834502955  0.01591571240789
6   -1.00910243731302  -0.91034160937395  0.00736356406280
6   -1.34430446605252  0.50458352945243  -0.01993632846093
1   -0.32436224840544  2.38402008273780  0.02368135792061
1   -2.35452024340799  1.04688508568356  0.20894727492407
1   -1.90032465387771  -1.71968645960005  -0.00992253312407
1   0.38842662334260  -2.44072709137413  -0.16541562253812
1   2.35773455962560  -0.92846629046953  0.07024884955177
1   1.73413415106898  1.59102345556982  0.04627367231121





