%nproc=4
%Mem=2Gb
# TD=(NStates=1) B3LYP/6-31G(d,p)  

ABSSPCT

0 1
6   -0.24717451815527  1.39312727026607  -0.04578134795536
6   1.14618079795605  0.92181929515558  -0.01254943866818
6   1.24539336222035  -0.46198084120288  0.03309086953237
6   0.26781257527610  -1.35161115054090  -0.03453528365448
6   -1.07989436080565  -0.92251141356000  0.03061141512610
6   -1.31949458059275  0.44013612616017  0.00682246040364
1   -0.50292517842511  2.38968146584915  0.12295329588839
1   -2.38420229144246  0.78564172343011  0.11601391942012
1   -1.79776066174910  -1.85509084475435  -0.02165171325638
1   0.35595202366324  -2.42002807136359  -0.08808127500555
1   2.21054536328695  -0.86097731895378  0.07538606531220
1   1.93274171942863  1.70766499585513  0.11981638345188





