%nproc=4
%Mem=2Gb
# TD=(NStates=1) B3LYP/6-31G(d,p)  

ABSSPCT

0 1
6   -0.24441562655016  1.42918076003853  -0.01043055820255
6   1.13896461385716  0.95429456205946  -0.04216107878593
6   1.32552594545725  -0.42952186837940  0.06470073708933
6   0.25393813251195  -1.41451514517395  -0.01693220822497
6   -1.14161276445190  -0.94881122713258  -0.01819073655226
6   -1.32509909314691  0.43604791438079  0.05803308500003
1   -0.40836395262916  2.46856256255002  -0.00463847616125
1   -2.48186694007199  0.73806640628788  -0.14364169307325
1   -1.88677805943055  -1.74814549346604  -0.05783532902469
1   0.41925066073937  -2.47827268797857  -0.09682244140259
1   2.27500748766726  -0.89013476177663  -0.05460813845177
1   1.95922139286012  1.59288159114129  -0.03830248371490





