%nproc=4
%Mem=2Gb
# TD=(NStates=1) B3LYP/6-31G(d,p)  

ABSSPCT

0 1
6   -0.29421288106498  1.36908545368787  0.01258390795244
6   1.10830478968328  0.91615842830334  -0.04096653705149
6   1.33929994424737  -0.45810885006763  -0.00356733064631
6   0.23717186501380  -1.37929945246611  0.05755719380410
6   -1.06040318070266  -0.86583353825220  -0.09981788686454
6   -1.32434662647125  0.42822374969743  0.05633561955460
1   -0.46590045809943  2.41376829125715  0.17508757805003
1   -2.29555871519804  0.84017248580990  0.12609741990069
1   -1.99753690045698  -1.57586256111204  -0.21189470908898
1   0.43871961088715  -2.52874299027920  0.30499000464762
1   2.38681099831408  -0.86939704524369  0.09543015648799
1   1.84240215059285  1.64924639725700  -0.17256848264220





