%nproc=4
%Mem=2Gb
# TD=(NStates=1) B3LYP/6-31G(d,p)  

ABSSPCT

0 1
6   -0.19973228191048  1.36687600448968  -0.02476693319960
6   0.98993090371422  0.92474444142120  -0.00217752250996
6   1.29669362409491  -0.43741830590988  0.03683431158199
6   0.27616812677467  -1.42784524067021  -0.02951149075970
6   -1.07745598888535  -0.91479248286837  0.01049141923841
6   -1.25880384185972  0.50226962361548  0.00607457486871
1   -0.62351109484881  2.43923794845223  -0.01760329989180
1   -2.38921787325277  0.64806356184630  0.21670618927775
1   -1.86781137625944  -1.47604537389569  -0.08098526970181
1   0.42819675998725  -2.46162084678118  -0.09334096825784
1   2.28550773820874  -0.77626116377998  0.12144716820156
1   1.85332029869708  1.47896627131658  -0.10284988311615





