%nproc=4
%Mem=2Gb
# TD=(NStates=1) B3LYP/6-31G(d,p)  

ABSSPCT

0 1
6   -0.30645302627282  1.43630786338991  0.03237749082053
6   1.07989682874682  0.95547849795485  -0.08103361715864
6   1.31033678261401  -0.55819351940413  0.04896481096932
6   0.25025785140264  -1.37809445801815  0.00848338264755
6   -1.03436146994175  -0.90406367765533  -0.06559385801850
6   -1.32363218479078  0.44209043460952  0.04566687047656
1   -0.35717395063112  2.49388194244142  0.02647756650632
1   -2.26644372323418  0.78258644341085  0.14189636551391
1   -1.77016559727557  -1.61808026988824  -0.21523533722201
1   0.40389886772870  -2.48506535909731  0.28155780374472
1   2.31356566963432  -0.84838801234191  0.02245168930241
1   1.92381863828458  1.73010809107376  -0.01674943119859





