%nproc=4
%Mem=2Gb
# TD=(NStates=1) B3LYP/6-31G(d,p)  

ABSSPCT

0 1
6   -0.20918191657445  1.36525873899408  0.02156524214886
6   1.10901907430492  0.99997534293318  -0.05550186833771
6   1.26162257741083  -0.45206678358574  0.01005974943335
6   0.22546314394835  -1.40220827359491  0.01181529197695
6   -1.02968615784685  -0.95862214294612  -0.07358660152376
6   -1.36486528527897  0.47048131921149  0.06648768223169
1   -0.37718966572023  2.31693296722663  -0.04320247384258
1   -2.42851766538642  0.73059303913886  0.08269110381549
1   -1.79995683478059  -1.63358479314918  -0.15594535362306
1   0.44725340084039  -2.32343716797835  0.26390549677997
1   2.17693847208448  -0.88150109398587  0.21147516817877
1   2.04273649061170  1.49288902358575  -0.03496480207879





