%nproc=4
%Mem=2Gb
# TD=(NStates=1) B3LYP/6-31G(d,p)  

ABSSPCT

0 1
6   -0.27351003287549  1.41501117782914  0.01898047453732
6   1.04257560633731  0.88261985200898  -0.01009268087316
6   1.29870207072598  -0.47434250220026  0.01737943289784
6   0.24527662203485  -1.34828698109466  -0.01353504406335
6   -1.03286144368826  -0.92194283619255  0.02691983586341
6   -1.25786333793241  0.45597438648932  0.01407198304718
1   -0.51454266792699  2.36297878154319  -0.17914192028575
1   -2.28804064779277  0.77979838790953  -0.12224532182047
1   -1.86533563758875  -1.55189131937922  -0.14507593460287
1   0.20699376849982  -2.57500883286265  -0.25621929380078
1   2.38824043300331  -0.61453272050791  0.14523194960599
1   1.77150921275720  1.50011273699711  -0.19699615609012





