%nproc=4
%Mem=2Gb
# TD=(NStates=1) B3LYP/6-31G(d,p)  

ABSSPCT

0 1
6   -0.21679688374949  1.38875892324033  -0.04832940288120
6   1.05829764451059  0.93458363743478  0.00603327415190
6   1.31876211368817  -0.46002376264165  0.07134526290645
6   0.24144703124921  -1.38097487768711  -0.06955295256122
6   -1.03339346399834  -0.93100561104264  0.02728628377956
6   -1.33856667248473  0.44924891544932  0.04619861921975
1   -0.41668426963949  2.43411409239997  0.10433835567195
1   -2.49596698932044  0.76547547559029  -0.12419802806821
1   -1.75064140251326  -1.51152502105362  -0.10846345444534
1   0.27372239571969  -2.30618856552916  0.02904090754403
1   2.28269637024415  -1.08787720444627  -0.07454911582991
1   1.75060391270135  1.72551606496097  -0.18308939339989





