%nproc=4
%Mem=2Gb
# TD=(NStates=1) B3LYP/6-31G(d,p)  

ABSSPCT

0 1
6   -0.21990698422294  1.33766136278768  0.01378460313664
6   1.08569294578858  0.92412432826277  -0.03317910971036
6   1.32364819364894  -0.46639519608824  0.03275711666839
6   0.25855861683966  -1.36585037471807  0.02976631968922
6   -1.09303776075392  -0.94335818072174  -0.05215357418357
6   -1.36089870823435  0.50065007960555  0.02652016742702
1   -0.61775529592333  2.29156351520419  0.02453951186981
1   -2.21589727382893  1.00898178221322  0.01066233197291
1   -1.79302952878205  -1.61324043338580  -0.09037606295181
1   0.68004017904675  -2.38876771941743  0.12308152135947
1   2.14817405343701  -0.90608380472136  -0.23276806943036
1   1.87100745273902  1.76410126464362  -0.00823366014267





