%nproc=4
%Mem=2Gb
# TD=(NStates=1) B3LYP/6-31G(d,p)  

ABSSPCT

0 1
6   -0.26284053427398  1.27196510253560  0.01235224557016
6   1.06788441201563  0.87034004546549  -0.06749867461439
6   1.30388231202252  -0.36540208512281  0.05195321939799
6   0.31490170172158  -1.37152959473526  0.01178252026111
6   -1.12245313082263  -0.89746642426401  -0.04588651056730
6   -1.31421118780070  0.49980993160042  0.01421839479539
1   -0.32466570589997  2.45345617117163  -0.02189008216641
1   -2.33148257308931  0.91933895740172  0.16895567277434
1   -1.89647285036588  -1.58760259449846  0.17776751995255
1   0.45156208534156  -2.52433280915150  -0.23637945524423
1   2.35229717957621  -0.79765218615321  0.13801102963420
1   1.93409372146716  1.44126420013770  0.10240234866937





