%nproc=4
%Mem=2Gb
# TD=(NStates=1) B3LYP/6-31G(d,p)  

ABSSPCT

0 1
6   -0.27222137451731  1.40444989788782  -0.05884568117588
6   1.04940451057224  0.90857343488923  -0.02093859243530
6   1.30463267666971  -0.46445808797014  0.04797250166353
6   0.25878827274667  -1.33062169982578  -0.01089334182548
6   -1.05880392380183  -0.94441340394968  -0.03669240337084
6   -1.30694226268996  0.45013255890474  0.08511044590113
1   -0.25368817110479  2.51490218110761  -0.02290002724758
1   -2.22549021311535  0.75652117191622  -0.05558785487011
1   -1.97902535216325  -1.67089511099764  0.09683566004063
1   0.57024129118196  -2.29287202577746  -0.19961549626392
1   2.25348009545918  -1.13456868890173  0.04662777672441
1   1.94567199395554  1.57636710400432  0.12733225880901





