%nproc=4
%Mem=2Gb
# TD=(NStates=1) B3LYP/6-31G(d,p)  

ABSSPCT

0 1
6   -0.29372005770351  1.37749263525584  0.01651814899532
6   1.04497277451335  0.91141978046245  -0.03162852797458
6   1.30352944714568  -0.50753531582984  0.03065483739962
6   0.23841262046690  -1.42619422367846  -0.01663074742989
6   -0.95915571328493  -0.84311958550583  -0.01945725786980
6   -1.32643181887767  0.46978012923182  0.03568151661922
1   -0.42204752306172  2.41012557069083  -0.05051494186042
1   -2.46808563611068  0.80121623825012  -0.15597148126464
1   -2.00934958242554  -1.49269575648863  0.01249522221936
1   0.47522155331893  -2.35236625861101  0.07363256375202
1   2.48209743838821  -0.65510468764780  -0.02808720405763
1   1.86808444588557  1.50543002282496  -0.00219150051813





