%nproc=4
%Mem=2Gb
# TD=(NStates=1) B3LYP/6-31G(d,p)  

ABSSPCT

0 1
6   -0.30335942982005  1.36581398896448  -0.03462537259815
6   1.07813659549633  0.95430202775239  -0.00792007522062
6   1.24936302000908  -0.46293628439540  -0.00260665581526
6   0.28117542208054  -1.42387450063664  0.03776434960426
6   -1.02740438478651  -0.92158907655529  -0.03110836459119
6   -1.26681312576829  0.48536485333665  0.05348202919813
1   -0.41104030024557  2.47895750522938  0.03555359164436
1   -2.22101089668361  0.95081157100912  0.07532684827130
1   -1.94824629360941  -1.63044928215768  -0.27220402441901
1   0.36091459148520  -2.49299552388926  -0.01922987965701
1   2.22528608189593  -0.80992489122602  0.01773440460820
1   1.87479490548675  1.53106545783739  -0.01038165460980





