%nproc=4
%Mem=2Gb
# TD=(NStates=1) B3LYP/6-31G(d,p)  

ABSSPCT

0 1
6   -0.24486100629688  1.40298022790073  -0.01755189087784
6   1.05883020277957  0.87870886474021  0.05889958222446
6   1.29838356998961  -0.42807058856052  -0.00071264556630
6   0.28706277651426  -1.37595470152259  0.00463188003616
6   -1.09881624090322  -0.93614095435513  0.00434225945906
6   -1.28432709740633  0.47549048584543  -0.04343738407798
1   -0.56219566155943  2.45944715992062  -0.03565725586630
1   -2.31074420141374  0.96060522821114  0.11977961913294
1   -1.75791619569985  -1.86937947887977  0.18590779764470
1   0.33159484447407  -2.51100797711554  -0.07557471043877
1   2.20416864014337  -0.92131350524608  -0.26077892020316
1   1.88415039410149  1.63822503141823  -0.05301535923063





