%nproc=4
%Mem=2Gb
# TD=(NStates=1) B3LYP/6-31G(d,p)  

ABSSPCT

0 1
6   -0.29115767522202  1.33050347959080  0.01061361203977
6   1.07212213463757  0.87039077912358  -0.04128583456837
6   1.27080586914022  -0.42314524187850  0.03602319833251
6   0.26495525381568  -1.38150696903801  -0.01045875712817
6   -1.01610669819645  -0.90609418335044  -0.10311859662416
6   -1.30573336635292  0.47954833406046  0.07962763221370
1   -0.70437488057595  2.44050052729531  0.10298198322539
1   -2.16473136399558  0.95836134481803  -0.11735264384812
1   -1.94475142527425  -1.25848225772842  0.26897963579918
1   0.68699327694068  -2.30561472844493  0.19413187854422
1   2.27013416613344  -0.93423269008696  0.22408780957965
1   1.97525484429840  1.44677196522222  -0.17793835264864





