%nproc=4
%Mem=2Gb
# TD=(NStates=1) B3LYP/6-31G(d,p)  

ABSSPCT

0 1
6   -0.28810738417042  1.36388914428321  -0.02730990763224
6   1.04184421093007  0.89607417316927  0.04847666849801
6   1.30602294546171  -0.51869625687227  -0.01966713220521
6   0.24809247968644  -1.35613487324010  -0.00385727381446
6   -1.00725373151538  -0.91150385173308  0.02728226934993
6   -1.33731594287493  0.52016545941438  -0.00143414207810
1   -0.36265409842934  2.37853228099386  -0.06475908638827
1   -2.24653618447403  0.80761326649004  0.05132074788553
1   -1.78881759946776  -1.67825607189158  -0.25038083601212
1   0.55221510777389  -2.37624025390140  0.15768215103489
1   2.30564564863614  -0.78713183874102  -0.20550800091495
1   1.97289076780179  1.70373603542450  -0.01285743261095





