%nproc=4
%Mem=2Gb
# TD=(NStates=1) B3LYP/6-31G(d,p)  

ABSSPCT

0 1
6   -0.24890882407594  1.39890978695456  0.03115427439592
6   1.01257189735210  0.94884167409002  0.00349982539717
6   1.32218663854137  -0.47309537079265  -0.02637822342931
6   0.27988882071884  -1.42746677801807  0.05685317290962
6   -1.08553408678959  -0.88607454165075  -0.02947449099078
6   -1.31614623415905  0.45710706048107  -0.02798148591131
1   -0.46252302567544  2.31331927639463  0.20989263041385
1   -2.32809812056304  0.84697288398789  -0.12521511165138
1   -1.74693947208122  -1.49513140835985  0.04215956349667
1   0.47742560652180  -2.54702716399988  0.07686552114268
1   2.37625946471180  -0.85882621324834  -0.16980060145564
1   2.05747409717893  1.50022111128054  -0.13402487767545





