%nproc=4
%Mem=2Gb
# TD=(NStates=1) B3LYP/6-31G(d,p)  

ABSSPCT

0 1
6   -0.28119422480254  1.36404835241691  0.01339868547018
6   1.10684084494019  0.86273053067466  -0.03463419858848
6   1.33317017493463  -0.42491544424430  0.06114585480870
6   0.24210070624611  -1.35242511582049  -0.04932387099209
6   -1.06480476397492  -0.90824909419475  0.01885284681289
6   -1.35184051929911  0.44384974630743  0.00878493834178
1   -0.32888728548844  2.56440720208158  -0.16035254735014
1   -2.34103670659803  0.78437103007679  0.01950569900215
1   -1.99924274559745  -1.50245229059765  -0.00055953774075
1   0.55438639273135  -2.40399722962533  -0.11599329297216
1   2.41537693473120  -0.81110122188521  0.04397180688673
1   1.92728449160015  1.55638535654517  -0.01652902403730





