%nproc=4
%Mem=2Gb
# TD=(NStates=1) B3LYP/6-31G(d,p)  

ABSSPCT

0 1
6   -0.29883781914425  1.37633788971917  0.05505911944717
6   1.07454151941772  0.88663233050693  -0.00450746986550
6   1.35244880428487  -0.46093226028085  -0.01963795453565
6   0.29551487390022  -1.42274902088961  0.04060131344050
6   -1.05006099065819  -0.87728654844946  -0.03066517480427
6   -1.37636832570368  0.48778261742946  -0.04705771244179
1   -0.39961206871775  2.42348144982293  -0.06074435723528
1   -2.44528798450626  1.01160111420550  0.18452312706238
1   -1.73303722846084  -1.67187952809332  0.04196704194444
1   0.43824321735884  -2.40591079197328  -0.03031736753816
1   2.12643034964413  -0.87485253565286  0.07416639397658
1   2.02096489732116  1.56466629351650  -0.18570884722389





