%nproc=4
%Mem=2Gb
# TD=(NStates=1) B3LYP/6-31G(d,p)  

ABSSPCT

0 1
6   -0.21575126782344  1.33436324855776  -0.02489834131342
6   0.99815086294428  0.89046965868901  -0.00069210262296
6   1.32366483513208  -0.50737941535456  0.01026055996772
6   0.25986798974372  -1.32826313543146  0.01551164937313
6   -1.03764081239023  -0.86858214468521  -0.05150479481294
6   -1.34078601725486  0.47178700974860  0.06369956710314
1   -0.42056188751867  2.42547946093355  -0.17564884142232
1   -2.39973674836295  0.76696535170317  0.13159321934253
1   -1.81302782676768  -1.61246003302933  -0.10185458005651
1   0.55258053868688  -2.34995768012062  -0.05078292202947
1   2.35775297566442  -0.61742945421151  0.09312715050996
1   1.88135761680414  1.42667764239363  -0.04510901515959





