%nproc=4
%Mem=2Gb
# TD=(NStates=1) B3LYP/6-31G(d,p)  

ABSSPCT

0 1
6   -0.20994148345665  1.42824133421878  0.00835782145224
6   0.99813979807838  0.86499386414211  0.05139436190406
6   1.27258045370137  -0.43911902395671  -0.03209395148214
6   0.27343466741091  -1.37777336192368  -0.01832562219836
6   -1.01111953079846  -0.89429829523545  0.05621284257197
6   -1.34769087677121  0.41722447228097  -0.06597094186866
1   -0.46856058888047  2.56167085213439  0.00422601028485
1   -2.25141932561112  0.77495932693609  -0.07839855715794
1   -1.72817670801105  -1.52621436105279  0.16779862609504
1   0.36053886881156  -2.46322916137439  -0.06180488308984
1   2.27376156645192  -0.90974965875580  -0.05680646874373
1   2.11111999577138  1.49286706562234  -0.03715287458575





