%nproc=4
%Mem=2Gb
# TD=(NStates=1) B3LYP/6-31G(d,p)  

ABSSPCT

0 1
6   -0.22611502492922  1.33786564836702  0.01008372632876
6   1.10240632656187  0.88960711194657  0.02592817122429
6   1.31258450553448  -0.44742217435657  -0.03861332792296
6   0.27953799073456  -1.36711376842998  0.01567944563938
6   -1.07622062460078  -0.88390319504426  0.04218714170282
6   -1.40550484744399  0.42293327459849  -0.03701131788062
1   -0.51841423622285  2.37540812417355  0.13697347496782
1   -2.35309645731084  1.08231077816215  -0.21766062717346
1   -1.74777705298575  -1.42200465639450  -0.03011783563239
1   0.46720640395138  -2.46750063736561  -0.03276038027539
1   2.36986133928282  -0.67024005810535  -0.07661723869843
1   1.95941457688775  1.59874744318626  -0.05961903039270





