%nproc=4
%Mem=2Gb
# TD=(NStates=1) B3LYP/6-31G(d,p)  

ABSSPCT

0 1
6   -0.24517126873799  1.39251342989336  -0.05889139120969
6   1.05691190429435  0.88346453733896  0.06012182328625
6   1.32059958796242  -0.44591756510691  0.06576409701516
6   0.23476683702139  -1.42724195627930  -0.04531024974586
6   -1.02181129458427  -0.89810402913241  -0.07359537364562
6   -1.32895145327280  0.49888734477327  0.07499676918439
1   -0.56819574007612  2.41980480218055  -0.21853509196850
1   -2.28542702378023  0.72413644818588  0.11988981414154
1   -1.96800593274626  -1.57182494658474  0.26454670927491
1   0.55199402013633  -2.33193993024286  -0.01364631476186
1   2.39159704412952  -0.89874656720495  -0.09922139371877
1   1.72875936614662  1.67984805995931  -0.29818957886408





