%nproc=4
%Mem=2Gb
# TD=(NStates=1) B3LYP/6-31G(d,p)  

ABSSPCT

0 1
6   -0.28315377267561  1.41195643041241  0.03459696235670
6   1.06378070434671  0.91725153229346  -0.00441315885951
6   1.32407546499108  -0.47937444370191  -0.02291299664208
6   0.24037321061830  -1.39718516595337  0.02494160238838
6   -1.03399557810419  -0.90313328110022  -0.00717946985313
6   -1.31697857640265  0.45320382769719  -0.04693660101447
1   -0.50692176383207  2.49752227722278  0.06692321267276
1   -2.16671113470417  0.78899380641124  -0.04057317720281
1   -1.84255961537951  -1.63700021712857  0.22483917975607
1   0.41960894369683  -2.32731629037373  0.00127000282896
1   2.26869003235233  -1.03229226750404  -0.06737583051716
1   1.91024158490531  1.66775622586283  0.08153019257976





