%nproc=4
%Mem=2Gb
# TD=(NStates=1) B3LYP/6-31G(d,p)  

ABSSPCT

0 1
6   -0.24511954887844  1.42124360784629  0.05530431937541
6   1.06170567064888  0.94520949798373  -0.00303388036324
6   1.29963084718458  -0.45455878643987  -0.05313151269272
6   0.23400823699742  -1.38168435083935  0.05946691526851
6   -1.09357685674744  -0.96375142227200  -0.04392159448782
6   -1.25625372127226  0.45661993737033  -0.08527491020676
1   -0.52007306797408  2.51879567669721  0.35712748414549
1   -2.34357430046986  0.70653382669741  0.21969606919990
1   -1.96802354459155  -1.82242740902544  0.10739501126089
1   0.31539151689962  -2.54407908558282  0.38674236327898
1   2.31283695353591  -0.67780931989630  -0.04290723561697
1   2.16312885048905  1.48039994082260  -0.09334259053806





