%nproc=4
%Mem=2Gb
# TD=(NStates=1) B3LYP/6-31G(d,p)  

ABSSPCT

0 1
6   -0.21405694796319  1.37315955477301  -0.05042991869112
6   1.06129141941383  0.91040283337043  0.06057825432557
6   1.22120730996651  -0.42250853053272  -0.08142284295027
6   0.26744089907954  -1.39326438522535  0.07184916204978
6   -1.03074566238648  -0.92498562620859  -0.03691276092291
6   -1.30875704544982  0.44020938199573  0.03029892031613
1   -0.51525516145444  2.41611700803269  0.12314870320249
1   -2.16802903965202  1.07571892321952  0.04164755580332
1   -1.79113588405048  -1.55596117598416  -0.14178243087624
1   0.55608602994018  -2.43845618708117  0.04790346851696
1   2.20103772903468  -0.92491976537789  0.04494956950124
1   1.79321822119549  1.61911734523208  -0.05723041459610





