%nproc=4
%Mem=2Gb
# TD=(NStates=1) B3LYP/6-31G(d,p)  

ABSSPCT

0 1
6   -0.23871010178127  1.36975893377204  0.01935693170604
6   1.03712799733844  0.89382302282298  -0.02160919846155
6   1.31598132049929  -0.43393977899046  0.02827337625965
6   0.24688581837577  -1.32594327892356  0.00553703908473
6   -1.06245070948936  -0.95464510344140  0.01677465511988
6   -1.30403712278822  0.44049176311419  -0.03429896107766
1   -0.29223709466409  2.42537560128617  -0.07088068632370
1   -2.32315447014049  0.94768835918333  0.16857260310363
1   -1.97603970060073  -1.55034152281493  -0.06660991662146
1   0.39369246940312  -2.36974685577576  -0.20024353401198
1   2.43986428734485  -0.81889980290259  -0.02366075216949
1   1.85125966929893  1.49036316748122  -0.03290462419084





