%nproc=4
%Mem=2Gb
# TD=(NStates=1) B3LYP/6-31G(d,p)  

ABSSPCT

0 1
6   -0.27481644460621  1.38259761635182  0.03470152884855
6   1.09048928870555  0.88844545374762  0.05009254905495
6   1.29132685090886  -0.44252480189508  -0.02098922802314
6   0.28124940236528  -1.36330109801471  -0.01650856902542
6   -1.08063958108802  -0.88628932747675  0.04677423512991
6   -1.31675556671584  0.45114319878191  -0.10919608562820
1   -0.13606025804216  2.42400147233825  -0.06875853388105
1   -2.37700291710178  0.71807979047179  -0.00250123063489
1   -1.88332171689883  -1.72696903667579  0.42755900287663
1   0.38452424913532  -2.49275891435636  -0.08683400040260
1   2.40125046298244  -0.89179079907514  -0.21982486894082
1   1.70955744640625  1.68652309048823  0.06538028747902





