%nproc=4
%Mem=2Gb
# TD=(NStates=1) B3LYP/6-31G(d,p)  

ABSSPCT

0 1
6   -0.23924258911280  1.37694395924381  -0.01281037276623
6   1.08093082311095  0.91876098520202  -0.00454180231592
6   1.27820856691826  -0.45142382406860  0.01753381726389
6   0.24919110035707  -1.38090749033165  -0.03642523932021
6   -1.02854078367649  -0.94548147669273  0.01240464748867
6   -1.30222391591709  0.46855446163886  0.00409859882950
1   -0.49354834131352  2.33593071559439  -0.04051730681504
1   -2.33488755787586  0.77718809643114  0.12626042744246
1   -2.04698956387751  -1.54169062249101  0.07464432279457
1   0.26701932731413  -2.32469012940028  -0.13578417021140
1   2.29824503397787  -0.69401807911074  0.28885948323623
1   1.87771962708419  1.62315610319239  -0.06451463983176





