%nproc=4
%Mem=2Gb
# TD=(NStates=1) B3LYP/6-31G(d,p)  

ABSSPCT

0 1
6   -0.26749384942273  1.36360839116039  0.01568166307339
6   0.97374880799242  0.83415983121439  0.01025522158699
6   1.34682335231273  -0.42353045830252  -0.04024412681364
6   0.28864436905924  -1.39191270913716  0.03092747492156
6   -1.06292079850781  -0.88263984847522  0.00585926978943
6   -1.28556166053607  0.49288844665005  -0.05702491605991
1   -0.38196578109376  2.47269695845837  0.08432055363313
1   -2.27621462118042  0.93664072888749  0.09985031827915
1   -1.87438631903807  -1.50346081523424  0.11727218669748
1   0.51905751511881  -2.44614977423495  0.03666567878114
1   2.39044409435734  -0.87842249534389  -0.06313370486654
1   1.74282827685273  1.53294447660224  0.14293644176201





