%nproc=4
%Mem=2Gb
# TD=(NStates=1) B3LYP/6-31G(d,p)  

ABSSPCT

0 1
6   -0.26540840995036  1.35020387981079  -0.01269178463084
6   1.06322561332379  0.95145750738393  -0.02785699528501
6   1.29521130289682  -0.48429338836968  -0.03102117080901
6   0.25906768967206  -1.39499238585145  0.01203103791295
6   -1.01873042387227  -0.91686863280390  0.06832671230203
6   -1.33433522356732  0.50706205867479  0.00868349918138
1   -0.47320137817052  2.34409171640689  0.05125894688361
1   -2.34342982787516  0.84221679826667  -0.19753567733857
1   -1.94207521580088  -1.53611240985983  -0.33831085755565
1   0.44582980962523  -2.57750365712178  -0.08491413405052
1   2.33836373954355  -0.60918443073937  0.02227856043542
1   1.95878570039295  1.38101760838125  0.29675808083857





