%nproc=4
%Mem=2Gb
# TD=(NStates=1) B3LYP/6-31G(d,p)  

ABSSPCT

0 1
6   -0.26970554233460  1.39028810270701  -0.01372435845288
6   1.05519820139327  0.85960392263991  -0.07489954628492
6   1.31065941002588  -0.43331009118260  0.08564394548777
6   0.26522195637033  -1.41888980752237  -0.02199761217168
6   -1.04140289756770  -0.91934113426099  -0.03984644079444
6   -1.34630728565079  0.50094796248100  0.07162665659823
1   -0.30023346566244  2.42839320236991  0.02884953250257
1   -2.33292419422650  0.82700117125291  0.01258749248823
1   -1.89640030180109  -1.55361445177226  -0.04915557227074
1   0.51711504701964  -2.41490563289472  -0.08072674999828
1   2.37647117798199  -0.61326926071948  0.08144923748124
1   1.98314730933502  1.54303496286217  0.01320828551862





