%nproc=4
%Mem=2Gb
# TD=(NStates=1) B3LYP/6-31G(d,p)  

ABSSPCT

0 1
6   -0.25821967823048  1.44490128234385  0.08307920288006
6   1.04739975752388  0.89489423718115  -0.04277315895637
6   1.34030015912058  -0.46975417846646  -0.03093749982848
6   0.27997727351940  -1.39521536925327  0.06904818808380
6   -1.05730694700079  -0.92436229144149  -0.06175256146846
6   -1.37349686615097  0.45376325705200  -0.00562733794530
1   -0.36168395950031  2.51039901646962  0.00039830337176
1   -2.36738844278749  0.91352657308162  -0.02862290394391
1   -1.93018229571558  -1.56631578268655  -0.20931661454380
1   0.64348398100604  -2.40774641259685  0.29052516785834
1   2.31463289796784  -1.15981909294642  -0.05767591882941
1   1.95904349239636  1.68891486938724  -0.13510625785638





