%nproc=4
%Mem=2Gb
# TD=(NStates=1) B3LYP/6-31G(d,p)  

ABSSPCT

0 1
6   -0.25510454646677  1.32997530520410  -0.05450359411411
6   1.07002417098157  0.88013441304106  0.04507564489055
6   1.33801631913730  -0.44965972434769  0.00317844256073
6   0.25970129192902  -1.30486641156562  -0.01585751110729
6   -1.08324884053668  -0.93334869205193  0.03710017540147
6   -1.32402889346887  0.48001074128084  -0.04313414466351
1   -0.43565361291756  2.39358711993836  0.26413152842434
1   -2.39292023085493  0.84270459011421  0.17374670561564
1   -1.99403834692387  -1.61184109924351  0.02306885221942
1   0.48176992073520  -2.38504517609854  0.07990669192647
1   2.35509171081307  -0.75191310092437  -0.20102476390142
1   1.92831173041223  1.48287437030813  0.04541752853826





