%nproc=4
%Mem=2Gb
# TD=(NStates=1) B3LYP/6-31G(d,p)  

ABSSPCT

0 1
6   -0.28662827453737  1.38482562522071  0.03577751666314
6   1.09148372542886  0.87370067809912  -0.00692998213746
6   1.37967414642098  -0.43950572092118  0.01073668182572
6   0.21630803079620  -1.41973201132543  0.02936337254533
6   -1.03873929991835  -0.89138571028173  -0.03629041649658
6   -1.33451912221442  0.49122925562442  0.02299916845384
1   -0.47718205857474  2.38817906121017  0.12741958808180
1   -2.60272890299180  0.82030789315590  -0.28395315358025
1   -1.88935870086187  -1.61347414674343  -0.14351669277364
1   0.36256058061991  -2.52149598393451  0.13866436644575
1   2.41699185289477  -0.69096654455740  -0.16888030197724
1   1.82789307030125  1.64522671017345  -0.36331781899936





