%nproc=4
%Mem=2Gb
# TD=(NStates=1) B3LYP/6-31G(d,p)  

ABSSPCT

0 1
6   -0.26198093608952  1.37109750076906  0.04662142185963
6   1.11626061807627  0.90268208295142  -0.01790650155051
6   1.31885907762303  -0.42070186978045  -0.02007261785302
6   0.23237650368686  -1.35598642847421  0.01857186661397
6   -1.05236408258365  -0.92536999380404  0.00625911104343
6   -1.32326718126691  0.43396595733825  -0.04599149523150
1   -0.50781022607345  2.39852429865282  0.03493515328972
1   -2.31324989440326  0.83157628583428  0.05483628672255
1   -1.94486732395190  -1.61158172051424  -0.01835644543989
1   0.21608928154218  -2.39377874753736  0.03185560361282
1   2.32843810907410  -0.88341432446380  0.07230314749986
1   1.86718709805515  1.59938781095565  -0.04653266757301





