%nproc=4
%Mem=2Gb
# TD=(NStates=1) B3LYP/6-31G(d,p)  

ABSSPCT

0 1
6   -0.23987322124721  1.33428540772741  -0.07249407051225
6   1.04670606259114  0.85100500753466  0.05889240112736
6   1.36461465168217  -0.42542335205404  0.04742703911416
6   0.25208293401390  -1.34286198559134  -0.06037456570681
6   -1.07900888785367  -0.89864082468226  0.00420331784623
6   -1.34347865600031  0.47054731650217  0.05274538130649
1   -0.28351578436590  2.46762073916906  -0.20458309037128
1   -2.31436984661271  0.84131704939334  0.03483457149867
1   -1.88517686542863  -1.66031825479847  0.10140520418922
1   0.41982686028312  -2.43690322766144  -0.14001903051913
1   2.28652381536950  -0.56775135078900  -0.06915546325092
1   1.79071938624644  1.46526572296723  -0.10538681377207





