%nproc=4
%Mem=2Gb
# TD=(NStates=1) B3LYP/6-31G(d,p)  

ABSSPCT

0 1
6   -0.29075707945952  1.44730252573761  0.03466558165389
6   1.10429513643178  0.91780733134408  -0.01987666835434
6   1.31718503929172  -0.47984812209687  -0.00792919525868
6   0.25968574909151  -1.37208324208294  0.01747091654175
6   -1.07160081171272  -0.92178151235287  -0.01627364396225
6   -1.32959306933701  0.42353430873502  -0.02323961782379
1   -0.47680310578900  2.32182545251863  0.09945653570525
1   -2.34568576023210  0.93173260041062  -0.05499449571681
1   -1.87087441931451  -1.78723959799467  0.14939829161148
1   0.33742674939268  -2.39319403554448  -0.01938190800731
1   2.31463558945697  -0.89878522646419  0.07776803290804
1   2.11613957370685  1.58741883271381  -0.05657835760999





