%nproc=4
%Mem=2Gb
# TD=(NStates=1) B3LYP/6-31G(d,p)  

ABSSPCT

0 1
6   -0.21605723925300  1.31783637262247  -0.06883866938989
6   1.08145265061221  0.95712001159079  0.00535915145242
6   1.29276812187962  -0.50096207785397  0.00725130056896
6   0.27404500379457  -1.38935615667253  0.05336430664891
6   -1.07010163255790  -0.92008461401678  0.03361099445369
6   -1.37073263714099  0.52924251889428  -0.00113744482760
1   -0.44528550470049  2.47417615193915  0.20265085400803
1   -2.44495818407549  0.80233839424514  0.01325297100756
1   -1.90515957792615  -1.67261533666200  -0.13770936981790
1   0.68861132025871  -2.49719486511560  -0.47987428746505
1   2.33035376972716  -0.60429308252361  -0.17568065600059
1   1.89933518945303  1.55713167074377  0.15786966678734





