%nproc=4
%Mem=2Gb
# TD=(NStates=1) B3LYP/6-31G(d,p)  

ABSSPCT

0 1
6   -0.18880216886738  1.36675475341817  -0.00379730385953
6   1.06790238904183  0.95637542629700  0.03048603626441
6   1.27889770370538  -0.44488177601298  -0.03386337069432
6   0.24736344899991  -1.36130280268464  0.01470011084805
6   -1.07444409973510  -0.98354448809673  0.03677704006624
6   -1.33684414094746  0.44496783756528  -0.01010109617158
1   -0.36557613747105  2.66585701676290  0.04975199456237
1   -2.24516807654223  0.82483885058832  -0.29281704380616
1   -1.86000228171128  -1.70176593273668  -0.02864394119683
1   0.37542969742088  -2.33228582704110  -0.07885074095472
1   2.22577832597305  -0.88835416797484  -0.13272885542953
1   2.00438723722480  1.61616442260284  0.00060428747246





