%nproc=4
%Mem=2Gb
# TD=(NStates=1) B3LYP/6-31G(d,p)  

ABSSPCT

0 1
6   -0.25336442904042  1.37206430408345  0.02448676998032
6   1.05778711712803  0.89318286091470  -0.02484496282933
6   1.30150060810674  -0.45179555701080  0.05804920395536
6   0.23299157410170  -1.32604598542854  -0.03598069428545
6   -1.05800434193815  -0.90153631074074  0.02322651482934
6   -1.28036622364807  0.44642644567971  0.01058412874217
1   -0.43668907493006  2.36083474932252  -0.00474812274649
1   -2.45515518700016  0.76080732961000  -0.37556588125753
1   -1.77396229638579  -1.82329792241484  0.11245449122671
1   0.17441150644014  -2.57418410579012  -0.18306553525269
1   2.43556130787305  -0.69917620343199  -0.11078702071512
1   1.98139704570334  1.54853196292853  -0.14672523823681





