%nproc=4
%Mem=2Gb
# TD=(NStates=1) B3LYP/6-31G(d,p)  

ABSSPCT

0 1
6   -0.23420374298702  1.34012324550743  0.03992084179785
6   1.09594870327633  0.91697964552495  -0.01549729436293
6   1.26352949712486  -0.45645130140539  0.00287024284378
6   0.29161297257456  -1.37142298065749  -0.01398020015569
6   -1.08886801302403  -0.91765882704872  -0.01588763126493
6   -1.34149136201411  0.43739036229436  -0.02777790522690
1   -0.25103383464037  2.45680848591568  -0.01149966661019
1   -2.38011188818934  1.03153625567055  0.11039906463489
1   -1.81903388950499  -1.53353382098389  0.10068377261132
1   0.53975565600744  -2.32498944352602  0.18880470076957
1   2.32534613472850  -0.74975243133187  0.06851628974321
1   1.80316909229415  1.69397415270656  -0.04901940730725





