%nproc=4
%Mem=2Gb
# TD=(NStates=1) B3LYP/6-31G(d,p)  

ABSSPCT

0 1
6   -0.22220694856214  1.33404401377657  -0.00356163340665
6   1.02942208700566  0.85938295576718  -0.03599962325237
6   1.31904574978378  -0.47560114494237  0.04028060561864
6   0.24141100886199  -1.34945846076697  -0.00190755847674
6   -1.01464744396106  -0.83823064221400  -0.06094871216552
6   -1.35928832760627  0.46360407993272  0.00846962378320
1   -0.43016271943069  2.51865616418941  0.10394432391202
1   -2.48923906238115  0.66075202387733  0.39257585686078
1   -1.85413972316248  -1.63847495377214  0.00474621828800
1   0.54559210260640  -2.39414850399953  0.24312962108105
1   2.39054476831199  -0.63399339611765  0.03738538731725
1   1.92641320056735  1.52463822026120  -0.00089755711008





