%nproc=4
%Mem=2Gb
# TD=(NStates=1) B3LYP/6-31G(d,p)  

ABSSPCT

0 1
6   -0.23913100336825  1.37617365700518  -0.00021077298287
6   1.06786328465554  0.94461604852280  0.03449740016463
6   1.29945121447380  -0.48643031935082  -0.00829600330532
6   0.20463969683269  -1.39090421604801  -0.04970980369503
6   -1.05830823577242  -0.86134196270515  0.05082149659838
6   -1.25737067540352  0.42700619057331  -0.02354329157212
1   -0.71620222852540  2.34475630999957  0.04168165151688
1   -2.41434385676280  0.74195713098655  -0.11239999100705
1   -1.72920738243300  -1.62852702496297  -0.02660535027304
1   0.42939112641446  -2.47217743703393  0.17518494061385
1   2.33859153743428  -0.76058797832516  -0.01807933602680
1   1.82929107342204  1.65186808608916  -0.10944372745440





