%nproc=4
%Mem=2Gb
# TD=(NStates=1) B3LYP/6-31G(d,p)  

ABSSPCT

0 1
6   -0.29423656801506  1.47409375881617  -0.03175420201554
6   1.05392059713240  0.86543583991620  0.05685438819276
6   1.26035094689114  -0.46072943638327  -0.04203856498943
6   0.29265412947208  -1.45880790891348  0.03396288949970
6   -1.03088968206271  -0.92976943211625  -0.01668336977272
6   -1.26151068594226  0.51582566067483  -0.00341663045650
1   -0.31751296332070  2.45093158943174  0.08409516696304
1   -2.48224419891273  0.54891876781026  0.03535074577886
1   -1.91446517430062  -1.52835455489934  0.00412955243843
1   0.36504362722336  -2.46757072405017  0.09040814732170
1   2.30606202183442  -0.67970863696290  -0.14715719675086
1   1.79627675166353  1.65975594789762  -0.03622665995089





