%nproc=4
%Mem=2Gb
# TD=(NStates=1) B3LYP/6-31G(d,p)  

ABSSPCT

0 1
6   -0.29215585153842  1.30791478922241  -0.06054884308252
6   1.05023267562907  0.85207571030361  -0.02999733690525
6   1.37625135030864  -0.45071104882198  0.01529280714988
6   0.25541419234778  -1.27985608090143  0.03515606715476
6   -1.05580865011565  -0.90564182320358  -0.06796399353308
6   -1.32823737036322  0.49969435344649  0.11650310512963
1   -0.23416154376991  2.40823149952111  0.06836365818377
1   -2.37953552608663  0.75768502072970  0.04699486558653
1   -2.00763459212599  -1.56257059879650  -0.33670613615086
1   0.45355390074855  -2.43365714669281  0.09823631122536
1   2.38702931540474  -1.03869028187788  0.04628443642493
1   1.70974396867118  1.70810371460715  0.06167202670111





