%nproc=4
%Mem=2Gb
# TD=(NStates=1) B3LYP/6-31G(d,p)  

ABSSPCT

0 1
6   -0.22986657630783  1.45223068257376  -0.00405010795269
6   1.05024314494123  0.90773137469470  0.01164862587447
6   1.27612023381578  -0.49889636820834  -0.04428709699949
6   0.28116224569706  -1.41724301054874  0.01500442839979
6   -1.03649466391153  -0.89244100678766  0.01805541981886
6   -1.35237367460103  0.42326139463314  -0.02103789316597
1   -0.34358451434992  2.45129124097771  0.14471182216836
1   -2.30144902881223  0.91352116513927  -0.00338339987253
1   -1.72709435995849  -1.54030325085105  -0.08672621036828
1   0.40270826925203  -2.52301656522784  0.16972708265443
1   2.37132461523108  -0.66529880204208  -0.00398855286980
1   1.73923956908631  1.64227421630808  0.10057446902568





