%nproc=4
%Mem=2Gb
# TD=(NStates=1) B3LYP/6-31G(d,p)  

ABSSPCT

0 1
6   -0.26825361790830  1.35967461253262  0.01626793006257
6   1.10715204592903  0.94916447095190  -0.01958096282600
6   1.32646882856667  -0.47223135654691  0.03541508463599
6   0.22222980714920  -1.38036848364211  -0.04968969168960
6   -1.12575875385994  -0.91501468119676  0.01276410007543
6   -1.29815394443563  0.45933573184985  -0.02872746824322
1   -0.45066468641238  2.43953294895584  0.00352521539249
1   -2.31145074699510  0.79903036157510  0.00878349687557
1   -1.74434798568756  -1.71858216344714  0.29226566914663
1   0.59638142624964  -2.37444016883995  0.06513869296770
1   2.44567208694222  -0.76883402200640  -0.03699107524726
1   1.89812809124453  1.57315467601269  0.13873393435687





