%nproc=4
%Mem=2Gb
# TD=(NStates=1) B3LYP/6-31G(d,p)  

ABSSPCT

0 1
6   -0.29018285821479  1.44296535774152  0.06859411731245
6   1.00959019839447  0.84902760791326  -0.06870659884688
6   1.26399442697088  -0.43144475211324  -0.01759233743878
6   0.23729928264084  -1.42197571556964  0.06525132212442
6   -0.92656978436031  -0.91106897172121  -0.04825399526536
6   -1.27352196977970  0.52236895512208  -0.02007245478076
1   -0.41902518135616  2.37029747137855  0.08642237199248
1   -2.40823513531829  0.72435220268149  0.08585895876561
1   -1.80411543323718  -1.66244082904345  -0.05975176551102
1   0.36186759398149  -2.47778626915619  0.01194630268763
1   2.22869695830105  -1.02391127987462  0.16395147191415
1   1.75132476619746  1.54129062732894  -0.02493244393612





