%nproc=4
%Mem=2Gb
# TD=(NStates=1) B3LYP/6-31G(d,p)  

ABSSPCT

0 1
6   -0.29625303336367  1.40969259971084  -0.01962691335824
6   1.03475339607823  0.87187213295181  0.03072591081440
6   1.32413618339608  -0.50415352450838  -0.00235490265663
6   0.26796694446487  -1.36573817173716  -0.02622629324002
6   -1.01453072719151  -0.86091799570839  0.02481738311958
6   -1.33719158492981  0.46311717139297  0.04388734953319
1   -0.44461578344385  2.45255407909403  -0.28488455958717
1   -2.51607333274379  0.77242107878221  -0.15439232173440
1   -1.72215838606887  -1.66118061075858  -0.09649892602887
1   0.40894380350508  -2.40865025468987  -0.18908372213975
1   2.42007376989480  -0.89798475562063  0.09670849372884
1   2.06140963564235  1.51212533066686  -0.08718234885844





