%nproc=4
%Mem=2Gb
# TD=(NStates=1) B3LYP/6-31G(d,p)  

ABSSPCT

0 1
6   -0.23939871619779  1.37817027790358  -0.05386015730703
6   1.07778280957235  0.94789828805885  0.05184878269242
6   1.33163923385476  -0.45587067175926  0.02667977849770
6   0.25497960686377  -1.36709790946373  -0.08619318565456
6   -1.14961952866398  -0.97300371688282  0.08337300342023
6   -1.28670485988748  0.47269565010468  -0.02554370659364
1   -0.39535034398602  2.51315867684869  -0.17327264841714
1   -2.28556936398661  0.82501270433470  0.12942359447896
1   -1.96761635502145  -1.64572481850350  0.12737521353168
1   0.69447269477972  -2.32249318159108  -0.20388738969788
1   2.34660172121102  -0.87940505446528  0.03011112040915
1   1.78467836408818  1.49566371231704  0.09403844825197





