%nproc=4
%Mem=2Gb
# TD=(NStates=1) B3LYP/6-31G(d,p)  

ABSSPCT

0 1
6   -0.28123555625129  1.38228498406254  -0.03190158504734
6   1.07939137074161  0.92299330165367  0.02278150855932
6   1.32365827570748  -0.48924929805000  -0.00644853177264
6   0.23830642651403  -1.36345701668336  -0.01288347192285
6   -1.08718634644577  -0.89521770594300  0.00078733086650
6   -1.27926209943582  0.44625297331638  0.05712113148724
1   -0.54189273600676  2.33864556184683  -0.14446349562881
1   -2.28893600031646  0.93950152413927  -0.07352590982785
1   -1.83723678034155  -1.67063082142476  -0.21082423509352
1   0.52617318096837  -2.45236005234036  0.07122508013766
1   2.40817060280235  -0.89478535729167  0.00236843351557
1   1.78260071433886  1.71629038909932  -0.01965152416988





