%nproc=4
%Mem=2Gb
# TD=(NStates=1) B3LYP/6-31G(d,p)  

ABSSPCT

0 1
6   -0.24811638889146  1.33976422989797  0.03092652512675
6   1.05580670052669  0.90308915629540  -0.07178730403836
6   1.33467712168536  -0.47999201446742  0.04789981962562
6   0.27623866607297  -1.35170610416344  -0.00259340355777
6   -1.06754865359382  -0.85421022010385  -0.00860431736251
6   -1.36137915849215  0.47123341237141  -0.01395081293796
1   -0.19462493428523  2.31552789241438  0.13547761840154
1   -2.46936986905293  0.77379858110954  0.12465897792336
1   -1.79855509725129  -1.73184882765873  -0.04613464185261
1   0.45888052781776  -2.54636055497755  -0.02336626872374
1   2.26707828092918  -0.80726729923791  0.09479962643136
1   1.79902355590048  1.70889118116405  -0.01182130301863





