%nproc=4
%Mem=2Gb
# TD=(NStates=1) B3LYP/6-31G(d,p)  

ABSSPCT

0 1
6   -0.25934884278831  1.39454287570924  0.02588390498033
6   1.11187807453377  0.94155486446721  0.00122023132442
6   1.36932236041825  -0.43606860273121  -0.03277096501691
6   0.17991978770721  -1.38598606876085  0.02342361300140
6   -1.10609594473022  -0.91347227843636  -0.04065903415893
6   -1.32191109992519  0.43298195954226  -0.01589729443409
1   -0.44407515457635  2.40602470319805  0.15510487979674
1   -2.37564790250149  0.60533968825711  0.02250813000840
1   -1.87606913638879  -1.56251634387034  0.07023859786119
1   0.53978830726209  -2.54234949764958  0.36112100530401
1   2.45703875299360  -0.81585696352382  -0.05188081471787
1   1.95660085791343  1.54730393240963  -0.00963736850390





