%nproc=4
%Mem=2Gb
# TD=(NStates=1) B3LYP/6-31G(d,p)  

ABSSPCT

0 1
6   -0.21469392452529  1.35681225401404  -0.04023583259004
6   1.07903603116398  0.90850082477557  0.01825531289152
6   1.28554282608904  -0.46690748997556  0.02441542782476
6   0.26001439124835  -1.35448902836650  -0.01714135580681
6   -1.07325621205336  -0.93079497767370  -0.00051414972624
6   -1.29480056898465  0.44163077799558  0.00623908697652
1   -0.71726521965391  2.47608057208664  0.06635101402463
1   -2.26852172296053  0.71442640484320  0.16849308214163
1   -2.03238293128220  -1.42752580023588  0.03266610392631
1   0.41710945192838  -2.31199746858322  -0.10394839510374
1   2.09761771391354  -0.72009343784862  0.06849606103875
1   2.03675924593365  1.78549409734664  -0.10489616812040





