%nproc=4
%Mem=2Gb
# TD=(NStates=1) B3LYP/6-31G(d,p)  

ABSSPCT

0 1
6   -0.20462372935139  1.41165261932581  -0.03732390541167
6   1.00318193506786  0.90460312929800  -0.01040427288388
6   1.27683178185768  -0.41471848149994  0.03882369246416
6   0.24554431782311  -1.42869841960231  -0.02205830183612
6   -1.04956941702712  -0.95397857229727  -0.01594047236695
6   -1.28064904285446  0.48654317134808  0.08145519852165
1   -0.31700183887936  2.50045399915993  -0.08219064425050
1   -2.25530067572718  0.83571676537269  -0.06127583259533
1   -1.76863574751227  -1.69802200003723  -0.15216588397777
1   0.39226766188044  -2.52383267507090  -0.14667233410350
1   2.32090194107633  -0.73066867209093  0.18094500452524
1   1.76404671157832  1.54314560250231  -0.15780708639236





