%nproc=4
%Mem=2Gb
# TD=(NStates=1) B3LYP/6-31G(d,p)  

ABSSPCT

0 1
6   -0.24657444857343  1.32285069262469  -0.00532296670955
6   1.07641275696677  0.91606640547717  0.00747410697063
6   1.29811756787498  -0.45993502483023  -0.01462548790094
6   0.24731393244396  -1.34824635788369  -0.03290383755082
6   -1.05735519792664  -0.88356617612215  0.02503575199410
6   -1.31564836819754  0.44459273108319  -0.01043897964653
1   -0.34886471651329  2.38024392346788  -0.11390166105311
1   -2.31785146827009  0.80352153626803  -0.01735887075178
1   -1.84102601644066  -1.69707645098641  0.26288180007919
1   0.24074575273753  -2.44416284197054  -0.14648743462967
1   2.32766409000339  -0.62271037132416  0.22407307760109
1   1.90666153304603  1.64286844503681  0.16231996941451





