%nproc=4
%Mem=2Gb
# TD=(NStates=1) B3LYP/6-31G(d,p)  

ABSSPCT

0 1
6   -0.25941860436977  1.36361095068352  -0.03357066792272
6   1.06668970310483  0.90339400379742  0.04686191408416
6   1.27659882863959  -0.48349892350995  -0.04286215973965
6   0.28188438189395  -1.35324820725115  -0.02731579859457
6   -1.04608806951815  -0.90973187246885  0.02047848785569
6   -1.31824739085257  0.44982367352323  -0.01777237901077
1   -0.59572636253340  2.56816519141654  -0.04936120691342
1   -2.29732020507003  0.89260783126625  0.03404853620326
1   -1.92024124448136  -1.47684581756248  0.28903152612639
1   0.41247643393448  -2.47139059718648  0.11139552007240
1   2.43860792859211  -0.80360373829427  -0.00120566470189
1   1.98410028052599  1.60092685705677  0.31876490512386





