%nproc=4
%Mem=2Gb
# TD=(NStates=1) B3LYP/6-31G(d,p)  

ABSSPCT

0 1
6   -0.22984890192278  1.35722959311044  0.05976540029599
6   1.12406552673183  0.92401674620375  -0.01831117030485
6   1.26461357476430  -0.44065631323631  -0.03483699642503
6   0.23471256007409  -1.35717129747672  -0.01266445786664
6   -1.02259190895376  -0.89300353163989  0.07320788829158
6   -1.35276442549901  0.43971913956035  -0.09572552532842
1   -0.52423634448485  2.34520571786088  0.00509069788145
1   -2.36848467312150  0.68852457951126  -0.08073218576262
1   -1.99453561219347  -1.57584897173578  0.13511999782806
1   0.46326158367945  -2.51894650188474  0.00059052720896
1   2.26325762605022  -0.87994932350247  -0.00304382239746
1   1.90778185776015  1.65066814116474  0.25125652139984





