%nproc=4
%Mem=2Gb
# TD=(NStates=1) B3LYP/6-31G(d,p)  

ABSSPCT

0 1
6   -0.25729758226700  1.27199533816274  0.04652917985372
6   1.05837234361302  0.87437945131370  -0.04581005882054
6   1.37112510299309  -0.44898312682305  0.03836536166223
6   0.24179090895236  -1.35665413024094  -0.01127468580037
6   -1.08714104372815  -0.85197943908541  -0.03537973116873
6   -1.34031350170225  0.49643657800218  0.00251019978340
1   -0.51694368052511  2.38584861287183  -0.15607891156716
1   -2.38207879212731  0.78452103350953  0.05384596849965
1   -1.87449354011686  -1.59918105795664  0.13909436395918
1   0.50688627771610  -2.40208098472104  0.01057958421850
1   2.49689242223044  -0.71530441498273  0.03626577232894
1   1.95099876726589  1.71132290166996  0.00013921481207





