%nproc=4
%Mem=2Gb
# TD=(NStates=1) B3LYP/6-31G(d,p)  

ABSSPCT

0 1
6   -0.21439625668684  1.36276586263401  0.00864711667960
6   1.03230548240832  0.95260598362672  -0.03584768388832
6   1.30344040318423  -0.43561428277662  0.04637411803334
6   0.25785620769865  -1.38417823354629  0.02245305225730
6   -1.07112611467906  -0.95218959527247  0.01532271003096
6   -1.30186175138331  0.45569984485171  0.00107088921849
1   -0.39371638546868  2.42576412558550  -0.05856981027192
1   -2.32207116110775  0.99948179460628  0.09583938419961
1   -1.93496838037173  -1.57738608373142  -0.37868039492394
1   0.40258861688450  -2.51039023078974  -0.18405132986631
1   2.30716654120569  -0.95488441703643  -0.17275443146142
1   1.86990384717469  1.65195520121625  -0.08141804852374





