%nproc=4
%Mem=2Gb
# TD=(NStates=1) B3LYP/6-31G(d,p)  

ABSSPCT

0 1
6   -0.30964988410827  1.36809241001443  -0.10595040492027
6   1.11067780788451  0.93356965213162  0.10212966667492
6   1.36763321875842  -0.50644161344789  0.00322366282995
6   0.24252358245976  -1.36549937876955  -0.05931387504985
6   -1.06769143630873  -0.88966678772612  0.01834051645325
6   -1.39697877675575  0.49694350137656  0.04075338425632
1   -0.45844735461277  2.37027752197800  -0.13475837625420
1   -2.26961362152068  0.72823563729664  0.09291709436734
1   -1.67995814886380  -1.65593088362592  0.17407074163711
1   0.53302249976395  -2.46915918184111  -0.09958429264532
1   2.46084724463016  -1.01969330430634  0.00260472545386
1   2.00502988214123  1.59891436381394  -0.02719079546736





