%nproc=4
%Mem=2Gb
# TD=(NStates=1) B3LYP/6-31G(d,p)  

ABSSPCT

0 1
6   -0.26310150292900  1.41179036239207  0.01560221065875
6   0.99896266508753  0.90290197679497  -0.03216094136074
6   1.28397637321303  -0.48389920866780  -0.00284329865268
6   0.25664299148790  -1.32548189798772  0.00966687995312
6   -1.01831079934527  -0.90545607219352  -0.00611506747505
6   -1.25680900811194  0.42256943493956  0.00879670295012
1   -0.40218260027189  2.37290474534542  0.04884237803811
1   -2.29626258291474  0.86219298749708  -0.15678871779153
1   -1.98777920523753  -1.56273471900763  0.07749964292191
1   0.42246048156430  -2.45701515546867  -0.01727486104827
1   2.34288114056439  -0.97162160782391  0.02183991507305
1   1.86854494139497  1.53170419288240  0.13780655033796





