%nproc=4
%Mem=2Gb
# TD=(NStates=1) B3LYP/6-31G(d,p)  

ABSSPCT

0 1
6   -0.28728253274653  1.40155953306886  -0.00705634414812
6   1.03235918484639  0.91162380530374  -0.01600959034063
6   1.26470397017850  -0.47047244831830  0.03187441628077
6   0.26722605244501  -1.43867711973742  -0.04472128672944
6   -1.00671777974898  -0.90470592890967  0.00328804520053
6   -1.29110870328217  0.51500539486132  0.01449240676003
1   -0.48120453363322  2.45063686419580  0.04548876646664
1   -2.28979650845015  0.81861345405038  0.15281224832339
1   -1.80824742004232  -1.58590216124488  -0.09618622713223
1   0.51397024368390  -2.54594311207434  0.09905093167807
1   2.39227344079698  -0.85083413537866  0.23401002173443
1   1.91509003112050  1.54504924755873  -0.16256414992402





