%nproc=4
%Mem=2Gb
# TD=(NStates=1) B3LYP/6-31G(d,p)  

ABSSPCT

0 1
6   -0.29675865496662  1.30787754637340  -0.03613762705252
6   1.08243186700254  0.90721392657102  -0.01624664275196
6   1.33806186587088  -0.48025224636338  0.03857581002678
6   0.27141600042852  -1.33891836674298  -0.03903779571066
6   -1.09950991660934  -0.85084262461632  0.03259162473915
6   -1.29363872421646  0.47201018365471  -0.01675979363749
1   -0.55190301806024  2.35554828349645  0.14525718611069
1   -2.43042625928100  0.58662871611108  0.23720350111601
1   -1.93989416126187  -1.32057167490588  -0.01906347954067
1   0.61846432528406  -2.46170120067113  -0.01640620075009
1   2.34094910978826  -0.84344662205050  0.05066818538993
1   1.89654228203779  1.55215300898698  0.11946297675306





