%nproc=4
%Mem=2Gb
# TD=(NStates=1) B3LYP/6-31G(d,p)  

ABSSPCT

0 1
6   -0.23287994316094  1.31646963124869  -0.00129443812581
6   0.98930186576029  0.95222421246368  0.02109714510269
6   1.32135070880834  -0.48789213245103  -0.03420999979572
6   0.24373612593810  -1.31896843120785  0.01473064739127
6   -1.04673186916401  -0.90534525180269  0.02888210491906
6   -1.27677354450515  0.44475210337371  -0.04657462140002
1   -0.52512584809759  2.40670019268137  0.09976436378652
1   -2.23295289419213  0.96069168636668  0.11783373343992
1   -2.00075907356262  -1.54651106837453  -0.05958486717908
1   0.50604265515555  -2.37544533551660  0.00065524327902
1   2.34638743511275  -1.03113835022805  0.02854589612442
1   1.93435775464371  1.58405708423889  -0.00295417723905





