%nproc=4
%Mem=2Gb
# TD=(NStates=1) B3LYP/6-31G(d,p)  

ABSSPCT

0 1
6   -0.27343600791703  1.36758623929441  0.04394113322717
6   1.02227409445471  0.88822037217713  -0.00417171319262
6   1.36075208159905  -0.48728472644804  -0.01193392339262
6   0.27762666944819  -1.40793407130643  0.01979128163522
6   -1.05042485623041  -0.87225071922893  0.01581835431711
6   -1.35193150279556  0.48024549250048  -0.04768945213874
1   -0.49727337233458  2.56037627837907  0.00399981076245
1   -2.18100813528568  0.95828420820794  0.02141737840408
1   -1.90769128405623  -1.61805060485617  -0.10050504755788
1   0.50514137660707  -2.41188586560639  0.00171435529187
1   2.35021814077150  -0.63872424641216  -0.05167105167025
1   1.96464083385252  1.43992523676488  -0.12795926071250





