%nproc=4
%Mem=2Gb
# TD=(NStates=1) B3LYP/6-31G(d,p)  

ABSSPCT

0 1
6   -0.23142513222158  1.35025684877321  0.05414846836604
6   1.05386200990360  0.91016145791862  -0.01697372836260
6   1.35215276593424  -0.46172504634272  -0.04847841930216
6   0.23692816558284  -1.30544398695181  0.05193372398073
6   -1.04997411252242  -0.89675921265829  -0.00461699078854
6   -1.32608302555245  0.43557374402554  -0.06121217612226
1   -0.57798284212369  2.38926197506721  0.18522417604476
1   -2.21894467085553  0.73018326934326  -0.09723072936875
1   -2.14252051725031  -1.72199592939515  0.11272392600247
1   0.30660595334524  -2.38496898444542  0.09542131448521
1   2.26326850515730  -0.86686025208715  -0.07738913548160
1   1.93701662972006  1.50079599803929  0.08906531306300





