%nproc=4
%Mem=2Gb
# TD=(NStates=1) B3LYP/6-31G(d,p)  

ABSSPCT

0 1
6   -0.21407863844324  1.34393990236989  -0.07048245220272
6   1.09548060363895  0.96054229823353  0.04743650198252
6   1.23503757626088  -0.45552086644898  -0.03788330818004
6   0.24562508551618  -1.34868792739093  -0.01621122403095
6   -1.08079801917128  -0.91506780308924  0.02533571733287
6   -1.31605874533838  0.44806395231197  -0.00011670248655
1   -0.43726666212074  2.33732416828527  0.11151075962365
1   -2.41205804108512  0.72081017243531  0.16177834852544
1   -1.73297187168355  -1.68331250780676  -0.00072436035240
1   0.60559642513634  -2.48749070949559  0.16897188701547
1   2.27216184602258  -0.86031591232007  -0.00737600385756
1   2.06065155427550  1.55639555469298  0.26447002444668





