%nproc=4
%Mem=2Gb
# TD=(NStates=1) B3LYP/6-31G(d,p)  

ABSSPCT

0 1
6   -0.26788348772646  1.37191821421978  0.02191707775842
6   1.09196054420869  0.91125730398468  -0.03740803860648
6   1.36348545651710  -0.48685322628574  0.04808524089359
6   0.20149987325549  -1.35515489062519  -0.03752255686354
6   -1.05293149146933  -0.90378061024290  0.00946861073763
6   -1.34365716378152  0.46479112850570  0.00109105003655
1   -0.37925032268687  2.41076180083147  -0.16539369841672
1   -2.31910005277635  0.76087368363216  0.06950421571428
1   -1.76335041583657  -1.68759202436988  0.00443927143421
1   0.51653838260697  -2.29480042406465  -0.05062964687237
1   2.32131985709842  -0.86227097209312  0.03758063472520
1   1.71277405964666  1.65711566358767  0.03734179103385





