%nproc=4
%Mem=2Gb
# TD=(NStates=1) B3LYP/6-31G(d,p)  

ABSSPCT

0 1
6   -0.27423648818016  1.33986588901519  0.05373469745472
6   1.13377823949938  0.86902681719040  -0.04129971551558
6   1.33717572998771  -0.44862857879412  0.04233723680126
6   0.24229178710506  -1.37069861168114  0.05834802893170
6   -1.05678459103137  -0.84799495767681  -0.09341451947161
6   -1.38416571664090  0.43739323356398  0.01863207453147
1   -0.52580169577629  2.39782759001510  -0.00466050050155
1   -2.41306707712485  0.92255561847776  0.03900792239073
1   -1.76679842036179  -1.66209543934148  -0.03052792774735
1   0.43688655850870  -2.40235002643854  -0.00645566188919
1   2.34809568990443  -0.90240606027964  -0.13869743771154
1   1.93711284947802  1.87069320378727  -0.33256421688940





