%nproc=4
%Mem=2Gb
# TD=(NStates=1) B3LYP/6-31G(d,p)  

ABSSPCT

0 1
6   -0.23949091961449  1.36815697533477  -0.01398670956992
6   1.03482905765918  0.89788311436327  0.06342790940680
6   1.27722317029034  -0.45713525421171  -0.03848119562262
6   0.25289688851629  -1.34810035651013  -0.01273775780871
6   -1.08915221145068  -0.88761900626817  0.05261161300093
6   -1.27507487911580  0.43786495762551  -0.04886822987564
1   -0.35920196763712  2.45965108282281  0.01369553414381
1   -2.18118100020796  0.88501348737337  -0.10250320751912
1   -1.94295797920272  -1.68164181787154  0.15826858433353
1   0.78541306436033  -2.45424699795949  -0.07688124689790
1   2.45398692408004  -0.80028056253497  -0.08685912189320
1   1.73513917263377  1.49398606561602  0.00795035650160





