%nproc=4
%Mem=2Gb
# TD=(NStates=1) B3LYP/6-31G(d,p)  

ABSSPCT

0 1
6   -0.24016791198534  1.36476240830851  -0.02258283443013
6   1.05874652436523  0.91504676663600  0.02716475249408
6   1.26505343957809  -0.47483888733848  0.00093401046499
6   0.27321581763412  -1.37766090660656  -0.04885342127381
6   -1.04290481034907  -0.90988527370248  0.02576043492240
6   -1.32046426134367  0.48200840592270  0.05894984476716
1   -0.51864426670108  2.39057653670136  -0.31175384183088
1   -2.32614839751876  0.94965018639020  -0.12286826529811
1   -1.85669177430952  -1.66438573605388  -0.18758277959703
1   0.69888980262254  -2.39927899488707  0.00970333909842
1   2.16003470529310  -0.87917695266956  0.10992223144006
1   1.91534265554743  1.59578450312478  -0.05346149255822





