%nproc=4
%Mem=2Gb
# TD=(NStates=1) B3LYP/6-31G(d,p)  

ABSSPCT

0 1
6   -0.23409083687998  1.40694204752855  0.04120326184771
6   1.06016036855936  0.95701562753541  0.00777458218616
6   1.28702115230838  -0.45986603559620  -0.01776597098466
6   0.22043741226375  -1.45383801158193  0.01929296540950
6   -1.07815988941888  -0.93251284421287  0.01773315276567
6   -1.22845158132393  0.47469504429139  -0.09474745281534
1   -0.57464504424935  2.51467381092744  0.09022976879118
1   -2.28263521597219  0.63516588479726  0.23827626827859
1   -1.94729198876931  -1.62013781825373  0.07513650124319
1   0.42440698556984  -2.44939710880726  -0.00261008812865
1   2.30398225123705  -0.59880717083212  -0.02746821763506
1   1.77821712567874  1.61990157431317  -0.08734158488744





