%nproc=4
%Mem=2Gb
# TD=(NStates=1) B3LYP/6-31G(d,p)  

ABSSPCT

0 1
6   -0.30561344732132  1.38293287108994  0.03216891067945
6   1.10965283291319  0.92325098154093  -0.01415829107896
6   1.24039908581357  -0.46966153892754  0.04119174589529
6   0.24283075611614  -1.45206253149156  -0.06495980176436
6   -0.98186636582597  -0.91358118714132  -0.01777065680576
6   -1.28905631014082  0.52177365254359  0.01575575009306
1   -0.68133956749196  2.55645359703062  -0.15982422108796
1   -2.33366262327522  0.84704122483132  -0.12410990655007
1   -1.91157303791080  -1.61727452487989  0.28820557018286
1   0.52948594772304  -2.59822867146093  0.15240296712357
1   2.25180147396419  -0.80377228113878  0.04422458434917
1   1.95039671212042  1.70115089589811  -0.05254378043079





