%nproc=4
%Mem=2Gb
# TD=(NStates=1) B3LYP/6-31G(d,p)  

ABSSPCT

0 1
6   -0.24950088884187  1.39079406243944  0.06307412372140
6   1.05085482873855  0.92094892990551  0.02628360596560
6   1.28512691009375  -0.39825409052435  -0.03340853442837
6   0.21645310278089  -1.41650217380103  -0.00098896250490
6   -1.05980659427749  -0.93302543858107  0.01805698906305
6   -1.23786645935540  0.43905687868090  -0.07276808369383
1   -0.52081772116247  2.43871469500074  -0.06229577336342
1   -2.28400604527218  0.86064262853564  -0.16139776653216
1   -2.06164991133867  -1.57724454672792  0.27684127531019
1   0.50214541845183  -2.47707518919115  0.06598989256000
1   2.28968298932008  -0.81774320138266  -0.11965118407075
1   2.00915429266985  1.54847192392165  -0.06014213800411





