%nproc=4
%Mem=2Gb
# TD=(NStates=1) B3LYP/6-31G(d,p)  

ABSSPCT

0 1
6   -0.18941856774388  1.39133211788071  0.01045099004396
6   1.13341130050725  0.94894243210554  -0.00137117869134
6   1.30038343359722  -0.41985856106844  -0.04965669490324
6   0.24806919152265  -1.42014196984677  0.08261249075035
6   -1.10255220882702  -0.96109124860476  -0.02910906761929
6   -1.36461889870676  0.45160138491953  -0.01228415791728
1   -0.59684971812453  2.39113228032006  0.03977193635344
1   -2.47027678642767  0.76334275256214  0.04642279946886
1   -1.94403231840878  -1.50145628105648  -0.15599138450426
1   0.40454781478094  -2.42993619622902  0.09795387626243
1   2.36473559614712  -0.64826110646275  -0.24442476378837
1   1.95614239473180  1.51729023284659  0.19052342329348





