%nproc=4
%Mem=2Gb
# TD=(NStates=1) B3LYP/6-31G(d,p)  

ABSSPCT

0 1
6   -0.23371614426222  1.37630995616992  -0.01645065055911
6   1.03274080799866  0.93852737853540  0.01052965851577
6   1.33159724446398  -0.46797964563026  -0.00360971802650
6   0.23668477201504  -1.37624402051741  0.05221672166797
6   -1.06017149919485  -0.90537031298831  -0.02169061036330
6   -1.30456335128858  0.46210314200693  -0.00930568823648
1   -0.53983033976008  2.35580754419110  0.27944724036707
1   -2.23882996896138  0.93714809148729  0.03157789371814
1   -1.83376347219402  -1.70607315097018  -0.12215181586555
1   0.45404800247925  -2.55498779108077  0.01491003983677
1   2.31866844654231  -0.89634037260890  -0.19430306286653
1   1.77439210800244  1.56126023692558  -0.14448495872770





