%nproc=4
%Mem=2Gb
# TD=(NStates=1) B3LYP/6-31G(d,p)  

ABSSPCT

0 1
6   -0.27003293298950  1.33605399066945  0.02511811806152
6   1.09274738156920  0.92071566011817  -0.04063585252209
6   1.34256283193454  -0.46080928127615  0.04024523282479
6   0.24470194376645  -1.36294719035659  -0.03442287279646
6   -1.02572763270076  -0.83879255451440  0.00451891649408
6   -1.37219996006964  0.45166432178707  -0.01836664831575
1   -0.27054268543349  2.35140932863038  0.25750314887678
1   -2.58837494859683  0.56763146041054  -0.10549215383690
1   -1.90976692923944  -1.70639233867121  0.14423491510698
1   0.29006426652442  -2.35474395907213  0.12367819208832
1   2.31507280089553  -0.88798910851049  0.03610717693796
1   1.96503736639278  1.50635476901955  -0.08169124214261





