%nproc=4
%Mem=2Gb
# TD=(NStates=1) B3LYP/6-31G(d,p)  

ABSSPCT

0 1
6   -0.24049652181881  1.36708900674734  0.08914407750917
6   1.05748644019793  0.96320390715913  -0.00079535819326
6   1.35210993514999  -0.46902950620227  -0.05307541093607
6   0.19954948618965  -1.35855080338302  0.03842672577666
6   -1.05962602216264  -0.95531893510127  0.00412537423147
6   -1.29377381636328  0.47135147747757  -0.09346058410362
1   -0.41149109290248  2.39677601323030  0.00459448722572
1   -2.49725525689260  0.85642975364698  0.02237754491429
1   -1.92136162513074  -1.71925640048271  0.08374098391241
1   0.42874614629771  -2.41876477730184  0.13630231551046
1   2.32258705280140  -0.96807779499527  -0.03637501332565
1   1.85840788654607  1.65790020587901  -0.07865126822467





