%nproc=4
%Mem=2Gb
# TD=(NStates=1) B3LYP/6-31G(d,p)  

ABSSPCT

0 1
6   -0.30446581647815  1.42733017458367  0.04647993984096
6   1.02495095111758  0.87010174837652  -0.02027064118762
6   1.32565251268593  -0.48302103457064  0.00953468907168
6   0.26949165248881  -1.30119316361776  -0.01525342568563
6   -1.02372867135224  -0.92575484341711  -0.03258260822849
6   -1.29003242631175  0.43765782600880  0.02096382704425
1   -0.38409690486151  2.39804973931410  -0.06290831577216
1   -2.36535446467709  0.91964076183352  -0.20407421944861
1   -2.03744978576748  -1.61587640365959  0.15739196883800
1   0.42270395022687  -2.44618260910798  0.05414220217105
1   2.26949273414927  -0.95580253057871  0.16588871149985
1   2.01891183779277  1.40372250541575  -0.20802009578062





