%nproc=4
%Mem=2Gb
# TD=(NStates=1) B3LYP/6-31G(d,p)  

ABSSPCT

0 1
6   -0.21895028971315  1.37274908049672  -0.08871159741128
6   1.05786344431609  0.97151350344579  -0.00235969386091
6   1.26082757649458  -0.43153684814495  0.03463005097140
6   0.17620324959435  -1.44212353140515  -0.02365774600026
6   -1.06402743916101  -0.92016715484995  -0.01375931571803
6   -1.20821160446486  0.44322154753064  0.05968265077541
1   -0.62797036524765  2.46541969986226  0.07246192696285
1   -2.30107883856566  0.78117460752229  0.33164918524543
1   -1.92588154053126  -1.69580089615859  -0.18448045303275
1   0.63103165532144  -2.36952796801645  0.07671544720511
1   2.26120177131902  -0.92377311955847  0.05956629361506
1   1.92397972472769  1.83195288845171  0.16776923100821





