%nproc=4
%Mem=2Gb
# TD=(NStates=1) B3LYP/6-31G(d,p)  

ABSSPCT

0 1
6   -0.24746153469198  1.37919165837724  -0.01297465577885
6   1.05571884117488  0.89894598542968  0.03934741659830
6   1.31093149754491  -0.46861843644425  -0.04416183232505
6   0.25900878410320  -1.39968528331426  0.00450075488515
6   -1.00522895764283  -0.87575997438148  -0.02115963471487
6   -1.36446490096964  0.46690849633438  0.00263495595815
1   -0.60373174631831  2.43311556690912  -0.03689853062769
1   -2.44267041357255  0.80568723892603  0.04276987474742
1   -1.88090745591081  -1.56279027499782  0.10946366683431
1   0.38980730858154  -2.42171801191096  0.23911658321186
1   2.38984109318375  -0.83059009901108  -0.03648549782978
1   2.04240168990634  1.52414668426518  0.10671964765365





