%nproc=4
%Mem=2Gb
# TD=(NStates=1) B3LYP/6-31G(d,p)  

ABSSPCT

0 1
6   -0.26110417998795  1.44020527894614  0.00567186454132
6   1.06407427827711  0.91354366007233  0.01311565621222
6   1.31361287332504  -0.44327296547775  -0.05892282911932
6   0.23594948707963  -1.42231129780778  0.05646354248398
6   -1.05358338881642  -0.91630560241490  0.00048558742844
6   -1.28502288696099  0.44234725173781  -0.01082259042137
1   -0.52593868326724  2.41458310704278  0.18001990592147
1   -2.19506709760119  0.86289576739261  -0.27014988744349
1   -1.81775684699543  -1.76466097141184  0.02313649538218
1   0.18571631884138  -2.58740337366579  -0.00275940463005
1   2.26495954155063  -0.74861392101736  -0.10947608673203
1   1.88634673286930  1.62926461204073  0.08469735561560





