%nproc=4
%Mem=2Gb
# TD=(NStates=1) B3LYP/6-31G(d,p)  

ABSSPCT

0 1
6   -0.28859161631336  1.40529972927000  -0.03369513828897
6   1.10015731977621  0.86875821649637  0.03938965084404
6   1.30629916305104  -0.48275070991034  -0.04586445526451
6   0.31120802049744  -1.35332608516225  0.01327901858877
6   -1.05186267947870  -0.88563541666086  0.02438830594002
6   -1.37086701268391  0.46996984384269  -0.01002160365795
1   -0.56472353952336  2.41491571907981  -0.05201582138329
1   -2.25466264216988  0.82601807545992  0.10108143964933
1   -1.90805869199442  -1.61402034816026  -0.07788540231563
1   0.42567370675444  -2.52058506660498  0.00015820891081
1   2.33770068722154  -0.96273412201855  -0.02763736691191
1   1.87538085907273  1.62270324999056  0.18009647316901





