%nproc=4
%Mem=2Gb
# TD=(NStates=1) B3LYP/6-31G(d,p)  

ABSSPCT

0 1
6   -0.23997204470399  1.41823935992351  -0.02282792263395
6   1.03160880603837  0.86343248476270  0.00311868792567
6   1.31251153285444  -0.46791668457412  0.06118021878400
6   0.32670714213899  -1.43736380188074  -0.03650598307050
6   -1.04221408188741  -0.86683025404465  0.02845478543021
6   -1.38480406044664  0.49367218455870  -0.00754196914895
1   -0.54979540520911  2.58004474245170  -0.00952260004636
1   -2.37023524577047  0.90392575574265  0.08897230077182
1   -1.91455004236568  -1.62745441244441  -0.02622853604401
1   0.66035385050238  -2.53043205458789  -0.17210978749035
1   2.28813848858034  -0.88839075144047  -0.10963928063820
1   1.87008420828402  1.52287021935836  -0.10749436732210





