%nproc=4
%Mem=2Gb
# TD=(NStates=1) B3LYP/6-31G(d,p)  

ABSSPCT

0 1
6   -0.21768000814717  1.35410625598297  -0.02924847480346
6   1.01642390034680  0.90974679848099  0.06329829235893
6   1.30441096833197  -0.45918383827571  -0.08217158084856
6   0.29354891837068  -1.34453690750867  0.00069726028267
6   -1.07679824022902  -0.90763141689622  0.03344675652968
6   -1.30700276853935  0.47516519142747  -0.01302007883525
1   -0.42000777989781  2.30435217929515  -0.16149002629481
1   -2.30132667564854  0.86713920671891  0.04018549052491
1   -1.98118773118996  -1.75413306608252  0.02328552439791
1   0.28745374500941  -2.52033662999330  0.07269541360304
1   2.39453900860225  -0.78047509111962  0.06227488772173
1   1.85436829405925  1.58200451460545  0.25324498627723





