%nproc=4
%Mem=2Gb
# TD=(NStates=1) B3LYP/6-31G(d,p)  

ABSSPCT

0 1
6   -0.28660128020700  1.34054725832682  -0.05526593762764
6   1.03772745415868  0.90497877567445  -0.03421861386656
6   1.32505039118294  -0.44817560009320  0.08130967259111
6   0.23857487692101  -1.38723381360326  -0.05396614671949
6   -1.05206728014947  -0.87782966329060  0.00359194745933
6   -1.28692547013145  0.47326595295069  0.11403450254814
1   -0.38006745756127  2.41848857005515  -0.18873725833711
1   -2.38712517093573  0.80180357658565  -0.01836860773394
1   -1.82578861260461  -1.57431814721285  -0.42059918727442
1   0.42796585427906  -2.48646544463124  -0.03130962426624
1   2.45415110974131  -0.77993241923042  0.02500365161510
1   1.98097669317914  1.53593246148743  -0.01696657180669





