%nproc=4
%Mem=2Gb
# TD=(NStates=1) B3LYP/6-31G(d,p)  

ABSSPCT

0 1
6   -0.23420962970909  1.35988795531078  -0.03979701483365
6   1.07876996821931  0.92921656500489  0.03485500928677
6   1.32865563151894  -0.48633554027704  -0.02236495154368
6   0.23030589704790  -1.34055597388096  0.02503373010860
6   -1.04379753625318  -0.94832270182127  -0.06759554621700
6   -1.35922960015021  0.43621132743823  0.05717195275525
1   -0.36634454747146  2.48875294333605  0.00696367848541
1   -2.21952872689185  1.02608639771862  0.02004863657630
1   -2.01665422631594  -1.67205874850692  0.09367575998221
1   0.49344714762663  -2.22526050464490  0.11434845667393
1   2.20779410226942  -0.88678338575203  0.01324488754936
1   1.95227090478785  1.82865719988335  -0.04129496967547





