%nproc=4
%Mem=2Gb
# TD=(NStates=1) B3LYP/6-31G(d,p)  

ABSSPCT

0 1
6   -0.27961678348976  1.37224785700496  -0.09509670398970
6   1.05522407552294  0.89665717846737  0.01245168318040
6   1.35083872866216  -0.47424832222051  0.00752060799223
6   0.27061420845662  -1.41116842903913  0.01203143639708
6   -1.05031709963736  -0.86583835514520  -0.01902609818444
6   -1.33677973936297  0.48085516845723  0.03034110247419
1   -0.37144722955496  2.22338753485180  0.20986285117566
1   -2.41801416842152  0.79800402943473  0.15813028595956
1   -1.88859427812578  -1.47422467653109  0.23867142921080
1   0.50032359290196  -2.34307524399396  -0.21227697554932
1   2.20429301329465  -0.84870517145371  0.02021171498883
1   1.82149178340773  1.71921427560193  0.31062942099864





