%nproc=4
%Mem=2Gb
# TD=(NStates=1) B3LYP/6-31G(d,p)  

ABSSPCT

0 1
6   -0.24333308543785  1.28999597578451  0.03021658515146
6   1.08823147611706  0.90540197762740  -0.03850208615557
6   1.30700500304679  -0.43285877762978  0.00420871812983
6   0.17895770001852  -1.32225362923214  0.04088877986810
6   -1.05359867952818  -0.89094354620603  -0.03327049913311
6   -1.28349607395996  0.47408544055383  0.03307006478934
1   -0.57092801120639  2.36832146074362  -0.08764911322581
1   -2.35333294722815  0.68224788080585  0.04263969561200
1   -1.74904914742356  -1.59737252813456  -0.38678654542091
1   0.64222686389848  -2.42757503820803  0.08463368234635
1   2.29025493298575  -1.01847233820255  -0.01262184938648
1   1.78135872627586  1.77858566713316  -0.11505360256413





