%nproc=4
%Mem=2Gb
# TD=(NStates=1) B3LYP/6-31G(d,p)  

ABSSPCT

0 1
6   -0.19249145669748  1.35772146413676  -0.03899586409399
6   1.01850200630758  0.91200076184634  0.05654232329349
6   1.28616006564678  -0.43488700389378  0.00942157463317
6   0.27089723891429  -1.42159022714987  -0.04912050561990
6   -1.06674397401821  -0.90945048198535  0.02045650826036
6   -1.31855401465740  0.48665895808693  0.02428683745980
1   -0.65845655281962  2.37065562120388  -0.25510330979769
1   -2.22782423145974  0.88226943537328  -0.06775957703573
1   -1.89014293394061  -1.53030680000999  0.16006899285782
1   0.61472096503844  -2.44612710710624  -0.11859451385615
1   2.23540991302248  -0.79151520614637  -0.03544741714860
1   1.97428198762586  1.61755253680424  -0.00197354234563





