%nproc=4
%Mem=2Gb
# TD=(NStates=1) B3LYP/6-31G(d,p)  

ABSSPCT

0 1
6   -0.28867584809768  1.35212211199415  -0.02604257124851
6   1.08171356149109  0.88619779823585  -0.00375054753600
6   1.31057212053648  -0.44558544884303  0.03649929597105
6   0.26797138801877  -1.32813299041391  -0.00881663670040
6   -1.07841825777259  -0.90986696572635  -0.02105877503343
6   -1.27632783390709  0.40297728935518  0.04438631708017
1   -0.52027970002208  2.57850491958686  -0.10796650743536
1   -2.22080076826546  0.92236619826979  -0.00310950001813
1   -2.01053908014636  -1.36746565330785  0.05241235979603
1   0.36845831084102  -2.36976678492555  -0.19351429422472
1   2.31110293714979  -0.87173937400728  0.02140004488579
1   1.91816255885899  1.59276096545984  -0.03251150291575





