%nproc=4
%Mem=2Gb
# TD=(NStates=1) B3LYP/6-31G(d,p)  

ABSSPCT

0 1
6   -0.24640594556121  1.40753501505178  -0.05677686947998
6   0.99614055372942  0.86439683108156  -0.02146839880080
6   1.34368073843814  -0.48120146399899  0.04228215106397
6   0.25493394169753  -1.35040048837972  -0.05604184598863
6   -1.05171962038130  -0.90817648263308  0.00933842435630
6   -1.28943301584987  0.45874395174156  0.12232879040586
1   -0.31943208396747  2.56449678529489  -0.21512099037382
1   -2.44735069174252  0.73333202046185  -0.18884176149780
1   -2.06268033646040  -1.50694036181221  -0.24974864201140
1   0.61188664011004  -2.45490085196100  -0.07497559468951
1   2.34769135648266  -0.72900745861408  0.18573949264109
1   1.79703044292303  1.54736012270129  0.08231067758144





