%nproc=4
%Mem=2Gb
# TD=(NStates=1) B3LYP/6-31G(d,p)  

ABSSPCT

0 1
6   -0.26469177043686  1.32002659258746  0.00382249451772
6   1.05098615531523  0.93371258834180  -0.03509352527121
6   1.35266705105424  -0.48306029303742  0.01911156269331
6   0.27836050068272  -1.38590501071414  0.05512146048894
6   -1.04538800235586  -0.87490206758934  -0.08585457943984
6   -1.35375018773632  0.47948413120671  0.02131452502336
1   -0.37417337740711  2.47742939269749  0.44398318916026
1   -2.45932853378933  0.80833536110098  -0.03857348178224
1   -1.95285390906153  -1.45740625961938  -0.03797360728838
1   0.41957007192402  -2.39738083907312  0.44374263782878
1   2.29488771064114  -0.74390478134729  -0.35933444136260
1   1.86796793760671  1.43583401792165  -0.02872839699030





