%nproc=4
%Mem=2Gb
# TD=(NStates=1) B3LYP/6-31G(d,p)  

ABSSPCT

0 1
6   -0.27800695930566  1.39419162044014  -0.13061112739227
6   1.06156503054024  0.95035380160095  0.05432087833803
6   1.30039864140903  -0.49569681262090  -0.01234586557719
6   0.27619860881908  -1.42583745651498  0.00905869405410
6   -1.07493556968021  -0.90571334532445  -0.02600612927489
6   -1.28736237887235  0.44574516177191  0.05915139186967
1   -0.49451773602571  2.46233660753291  0.08515463809420
1   -2.26051173225097  1.11536120365688  0.24105067906023
1   -1.82204347813484  -1.67925069892687  0.18000404775370
1   0.38353397957000  -2.39371753442817  -0.22630972040715
1   2.38165166590007  -0.81674001784158  0.09985878160420
1   1.86625140752137  1.68538566226799  0.25637853878826





