%nproc=4
%Mem=2Gb
# TD=(NStates=1) B3LYP/6-31G(d,p)  

ABSSPCT

0 1
6   -0.26051327807186  1.37712065980402  0.02123664493114
6   1.10176463312013  0.93290424087051  0.02013197761883
6   1.31487367909562  -0.45786249249895  -0.04173104668026
6   0.23845686395257  -1.36917818420536  -0.00360822998967
6   -1.09742157119366  -0.93859785197975  0.05734891392271
6   -1.30437797552765  0.47294562015849  -0.07758952252198
1   -0.64486164594076  2.34010922596329  0.15164409006932
1   -2.36139118571141  0.70948465270337  0.05118349297744
1   -1.91966964831058  -1.55154300013292  -0.02233638677088
1   0.40726818161203  -2.56867157129124  0.04361051011861
1   2.45074802770595  -0.71126969345131  0.08575905373973
1   2.10802335001378  1.56583675588461  -0.04990555441493





