%nproc=4
%Mem=2Gb
# TD=(NStates=1) B3LYP/6-31G(d,p)  

ABSSPCT

0 1
6   -0.21212783562784  1.34400376510574  -0.02332634523638
6   1.05346156630816  0.93984811774188  0.00576678310136
6   1.29970279772641  -0.46863234162017  0.02348949515210
6   0.24760072047216  -1.39920623914444  -0.02215065535798
6   -1.04438510952059  -0.89435528907960  -0.01159453715204
6   -1.36218720456315  0.49146305929300  -0.01353932688822
1   -0.39277837149878  2.45256097784978  0.07674378491940
1   -2.31159224424590  0.82378353468661  0.10823694364920
1   -1.91608471130881  -1.80169574968397  0.29834359910192
1   0.53743310498768  -2.47443205600446  0.03947167452559
1   2.45026428531190  -0.92114178843215  -0.10231819811045
1   1.87158539863968  1.79647591934869  0.16228412206394





