%nproc=4
%Mem=2Gb
# TD=(NStates=1) B3LYP/6-31G(d,p)  

ABSSPCT

0 1
6   -0.28837594065408  1.42829519266144  -0.02090238507368
6   0.95980680135145  0.85179212957191  0.10388492743119
6   1.29691104251377  -0.48635552617061  -0.07427886122463
6   0.31148701673668  -1.36884765120276  -0.04560137529356
6   -1.01697986366410  -0.91929271009182  0.07456429252041
6   -1.26171197446060  0.52140167200919  -0.02595680353347
1   -0.32056801679390  2.53811971506094  -0.25525353981268
1   -2.13704984988928  0.87531823640911  -0.20012941643129
1   -1.90920293533810  -1.77354029707349  0.10790256391797
1   0.43674342489684  -2.48251609270937  0.07091897196252
1   2.27170166073479  -1.03035596623146  -0.04258073815189
1   1.66852445103865  1.60676151453851  0.07967606279973





