%nproc=4
%Mem=2Gb
# TD=(NStates=1) B3LYP/6-31G(d,p)  

ABSSPCT

0 1
6   -0.27461239165805  1.34252365598722  0.00741252208823
6   1.07812411483718  1.00212096700203  0.03157411852826
6   1.29576480322873  -0.52651979809042  -0.02490353190666
6   0.23682786068553  -1.37961377233818  0.03459051629344
6   -1.03414956758719  -0.93955462762305  0.00402013416290
6   -1.30062531846964  0.47906477622161  -0.00340363541227
1   -0.55255559868183  2.43992919380391  -0.04530183945223
1   -2.17092592762092  0.92639775427973  -0.03374816960908
1   -1.99757318984542  -1.46691843187742  -0.25889318306368
1   0.47215125601608  -2.43807226180852  -0.02617076102934
1   2.42549871886557  -0.84264962447230  -0.08995221304880
1   1.83745277286091  1.66487386133787  -0.24146694594675





