%nproc=4
%Mem=2Gb
# TD=(NStates=1) B3LYP/6-31G(d,p)  

ABSSPCT

0 1
6   -0.25255255544166  1.37181766366312  -0.06253358588388
6   1.09799338227665  0.92897953563669  -0.03252575430637
6   1.32929247858711  -0.45636112057503  0.10228201644618
6   0.26083841156162  -1.41014992242687  -0.07130491960039
6   -1.05778864631948  -0.91502207730754  0.02179137161225
6   -1.33919892856611  0.49490662437238  0.04978606710858
1   -0.64071658537648  2.43924429764077  0.05340885933285
1   -2.46917106953465  0.73002585132286  0.12327045221839
1   -2.00485186434726  -1.65496643816146  -0.08927592440888
1   0.33205783910194  -2.45645273876025  -0.14593235166664
1   2.32261701383582  -0.75463011335573  0.03140149601573
1   1.99235384364234  1.51809962226695  0.00799150335455





