%nproc=4
%Mem=2Gb
# TD=(NStates=1) B3LYP/6-31G(d,p)  

ABSSPCT

0 1
6   -0.26158624340576  1.39582625495916  0.04054502604313
6   1.05769948419745  0.87583910245242  0.00024631629728
6   1.33357007325267  -0.50075164983774  -0.04776576096264
6   0.28463200487477  -1.37402480815444  0.05243602988647
6   -1.08565552779797  -0.87330824373127  -0.00277433896550
6   -1.33297788437758  0.46346959537239  -0.00208092926640
1   -0.45601929594447  2.44819298535958  -0.27745398189443
1   -2.31097405850162  0.73480619143928  -0.15731035423112
1   -1.78014155462875  -1.60013803704072  -0.01982654800853
1   0.57755194548875  -2.39995878964349  -0.27027372841054
1   2.12228047857883  -0.75852220274469  0.05536910260454
1   1.88212220503003  1.71480348314515  0.03990969937316





