%nproc=4
%Mem=2Gb
# TD=(NStates=1) B3LYP/6-31G(d,p)  

ABSSPCT

0 1
6   -0.23931589920982  1.39408383835840  0.04574671856492
6   1.04969819552483  0.95638831509874  -0.08497186208985
6   1.32748809244036  -0.49482142799936  0.03640570600477
6   0.25960357746563  -1.37536653868060  -0.00587670787201
6   -1.12837737074427  -0.96572608372603  -0.00257055149625
6   -1.28617149775565  0.45480994561281  0.01850439662043
1   -0.56762823256810  2.39137460684141  -0.10244972267787
1   -2.22884436066647  1.02519967975582  0.07217003079468
1   -1.80349693846118  -1.62452975983706  -0.27199948119309
1   0.42577058839825  -2.34011494564240  0.01500566256303
1   2.46213474515996  -0.85301546761430  0.17151553279042
1   1.94145036616730  1.70281114424427  0.03809945433867





