%nproc=4
%Mem=2Gb
# TD=(NStates=1) B3LYP/6-31G(d,p)  

ABSSPCT

0 1
6   -0.24485167198963  1.31211720659512  -0.04882601635953
6   1.07606179561934  0.91251285604534  0.06590489700888
6   1.33475309628064  -0.46711437998706  -0.02685361994530
6   0.23636780545272  -1.31269126930805  0.00195277370759
6   -1.10344812996251  -0.89186664406677  -0.01830998209984
6   -1.30162724568524  0.44694629520654  0.00159333143670
1   -0.42278592147101  2.40034488945403  0.11477994367758
1   -2.33515898637137  0.70447470594250  0.06950201169017
1   -1.95470329556488  -1.63650434174742  0.11684801289499
1   0.52671663133683  -2.36477927255580  0.21556059793735
1   2.27384727918229  -0.79612988169991  -0.17330762679699
1   1.93452052867908  1.71113437430977  0.00658557548544





