%nproc=4
%Mem=2Gb
# TD=(NStates=1) B3LYP/6-31G(d,p)  

ABSSPCT

0 1
6   -0.27226889700392  1.33494735252805  -0.05079913933670
6   1.03499368433061  0.90101483277341  0.05559872124520
6   1.31048563020225  -0.42121634990655  -0.03661318196593
6   0.23443016145943  -1.41095261988726  0.03678168607534
6   -1.01552860282925  -0.92193768087512  0.01502028678282
6   -1.29376106095573  0.49514701389039  -0.01580483428524
1   -0.43763972434313  2.43738217674499  -0.05045069949967
1   -2.30658350862642  1.06965874111196  0.16744224478553
1   -1.93190953544294  -1.53419601538355  -0.05340587146502
1   0.47986617399010  -2.56682227469933  -0.15715425115201
1   2.27534754266548  -0.69346088583872  -0.16789920519900
1   1.94656415091282  1.53879387797616  0.14865124385776





