%nproc=4
%Mem=2Gb
# TD=(NStates=1) B3LYP/6-31G(d,p)  

ABSSPCT

0 1
6   -0.22154543773916  1.33344007790440  -0.02613319515185
6   1.10480469843065  0.89140806140491  0.03211013104749
6   1.29789904564957  -0.45078453828407  -0.03054297537294
6   0.25186604608699  -1.29973722079876  -0.01067093951128
6   -1.08794342385817  -0.90580191228419  -0.00343649141903
6   -1.30882588653026  0.43938589428885  0.03090311397339
1   -0.81078022229462  2.36852302995464  -0.07398632619170
1   -2.35749410457219  0.76448387868780  0.04508063263641
1   -2.03503666084602  -1.63617031335209  -0.03544938348518
1   0.44749257548729  -2.40929469835606  -0.03555667047422
1   2.29134464520509  -0.77542003282201  0.30961931254143
1   2.01976386215916  1.58259353513402  -0.13110398384027





