%nproc=4
%Mem=2Gb
# TD=(NStates=1) B3LYP/6-31G(d,p)  

ABSSPCT

0 1
6   -0.24717395784910  1.41921257179578  -0.05481392322398
6   1.06210553537502  0.86080992944885  0.00957546184115
6   1.36647950672489  -0.51681995607303  0.03874181549251
6   0.26248415436561  -1.36532642137627  -0.05670889170113
6   -1.06584024147183  -0.90327447945995  0.01443367206086
6   -1.41660587120151  0.51511594984643  0.05740145366417
1   -0.39636023693060  2.48154326522150  -0.19223644219448
1   -2.35279579792795  0.63404806782835  0.16758274941123
1   -1.73737946267976  -1.73789213307707  -0.18719626362275
1   0.68804702405942  -2.32650329364563  -0.00706655567854
1   2.41166785653630  -0.68268748261851  0.11642687876310
1   1.86648809119386  1.47447506587056  0.01438949784694





