%nproc=4
%Mem=2Gb
# TD=(NStates=1) B3LYP/6-31G(d,p)  

ABSSPCT

0 1
6   -0.25361983704067  1.39056273734436  -0.01636000434231
6   1.05337087562435  0.89726217968725  0.02648438016847
6   1.37046670442956  -0.44147219582024  0.00838655710934
6   0.23253680207751  -1.37072637034496  -0.03333313360794
6   -1.06435732679849  -0.90751944868175  0.00406501243842
6   -1.35509224480200  0.45189476082517  -0.00447786849698
1   -0.43538801856063  2.44499871891860  -0.19550525684991
1   -2.26710110507106  0.74945728529642  0.22972378369531
1   -1.70292159643471  -1.62351184364373  0.05807469911711
1   0.22605118440864  -2.38962550659077  0.02236331315758
1   2.50457420893481  -1.01415100671924  0.04337082789369
1   1.87730774985381  1.57708835132809  0.02355815241591





