%nproc=4
%Mem=2Gb
# TD=(NStates=1) B3LYP/6-31G(d,p)  

ABSSPCT

0 1
6   -0.27261531590156  1.43176363840313  -0.01104520509853
6   0.99974449994881  0.87016501146033  0.02312757545046
6   1.32459598177625  -0.47813986015572  0.00022669821820
6   0.29929735801703  -1.43313911204702  -0.04192739409645
6   -1.05703819503496  -0.86635484889860  0.02440191661543
6   -1.32952566770697  0.50721137891075  -0.00619368007980
1   -0.57290052620065  2.45757418877553  -0.01573677104330
1   -2.27884891959227  0.81510615481965  -0.01447374734640
1   -1.80173222003575  -1.66993760321337  -0.02395095865509
1   0.64867943902484  -2.55396588292835  0.30456521627428
1   2.44755542749273  -0.94590964969579  -0.17136976842365
1   1.96723925131355  1.51932463528990  0.10402328602869





