%nproc=4
%Mem=2Gb
# TD=(NStates=1) B3LYP/6-31G(d,p)  

ABSSPCT

0 1
6   -0.28547798874796  1.29521084495798  0.00991460120100
6   1.07806292448114  0.86989710531934  -0.05309212524667
6   1.29230869325843  -0.45724339105153  0.05692311452793
6   0.31791299321767  -1.35833304699418  -0.00356265645295
6   -1.03021157254535  -0.86583996002522  -0.01561571755161
6   -1.35499023410426  0.50680072853328  0.01963400664123
1   -0.34015184241518  2.28003896786593  0.02513387898477
1   -2.38736726384114  1.06928330802687  0.11753581921345
1   -1.87307525212217  -1.61376614165395  -0.19241897283430
1   0.41124768975442  -2.35396231815296  -0.01966876070743
1   2.37355106192642  -0.89764628974724  0.00384434629551
1   1.64059694194278  1.67168986281279  -0.08083642528910





