%nproc=4
%Mem=2Gb
# TD=(NStates=1) B3LYP/6-31G(d,p)  

ABSSPCT

0 1
6   -0.21768403996143  1.35008724977494  0.06872345638417
6   1.08365229565267  0.90401923308875  0.01211188390919
6   1.29191595365471  -0.41847431930855  -0.05666010636319
6   0.25917050034727  -1.34693050927815  0.00886856830619
6   -1.12799183089718  -0.93270384549987  -0.00306689150738
6   -1.29998884860100  0.41491606108279  -0.04589687837041
1   -0.46200731569184  2.44466057172008  -0.23697043589680
1   -2.23710375491567  0.92475248532302  -0.05187657041690
1   -1.94365407094590  -1.48682407827265  0.19484004338198
1   0.51886613335272  -2.44374610957759  0.10845985011689
1   2.39323365391469  -0.74502078403481  0.07319091672100
1   1.89965608960137  1.64664172567355  0.05180161945629





