%nproc=4
%Mem=2Gb
# TD=(NStates=1) B3LYP/6-31G(d,p)  

ABSSPCT

0 1
6   -0.30657138714101  1.44012642205996  0.00664512635334
6   1.08507374497903  0.89925736262709  -0.06116199151799
6   1.36549278221116  -0.50479515688635  0.03302493849393
6   0.29049989383394  -1.38881673153981  -0.03084137188649
6   -1.09953299022409  -0.96014578034748  0.00478299166636
6   -1.31852618978214  0.50508519301910  0.05573193174266
1   -0.49642607646949  2.58275106651437  -0.02688977212157
1   -2.33828515460597  0.83734159593483  -0.07130408432653
1   -1.98800845512965  -1.64992405707465  -0.23630646016386
1   0.50402062861927  -2.29744686983275  0.01510533330645
1   2.39250275124782  -0.91146584550572  0.27681785244576
1   1.78215297763880  1.55034204983502  -0.01975827015072





