%nproc=4
%Mem=2Gb
# TD=(NStates=1) B3LYP/6-31G(d,p)  

ABSSPCT

0 1
6   -0.29579921556724  1.38744549618660  -0.00067399204692
6   1.08421357820383  0.92310136715004  -0.02957900643772
6   1.33007084055955  -0.49212708554594  0.00776382671817
6   0.27216196809318  -1.36744433129992  -0.02959394570394
6   -1.05681974969621  -0.97136882437784  0.06275524059870
6   -1.33943674700164  0.48753431043698  -0.03938589231231
1   -0.31921386640135  2.49887177222217  0.19068668005021
1   -2.35262164472545  0.96051528887957  0.03364661035486
1   -2.10811413014033  -1.41922405360940  -0.14499827942077
1   0.52107478555689  -2.53539121117145  0.15187240537379
1   2.37465019205113  -0.80870995572899  -0.05420335975534
1   1.96745032904965  1.73355006948909  0.22390910570972





