%nproc=4
%Mem=2Gb
# TD=(NStates=1) B3LYP/6-31G(d,p)  

ABSSPCT

0 1
6   -0.25131631899334  1.32372020417925  -0.02495885264585
6   1.05846489666124  0.94407360004548  0.02201766892929
6   1.30596260603410  -0.42638586434891  -0.00438423742137
6   0.24608560841907  -1.40200770773550  -0.03121629741678
6   -1.08039559781018  -0.89023147043368  0.03867439635332
6   -1.27800444215886  0.44076866867499  0.01116313674660
1   -0.34312855876399  2.48557785813728  0.05429317153673
1   -2.45919580315750  0.73443778266905  0.03641429724888
1   -1.95279123868991  -1.43430758625039  -0.36636207881396
1   0.34870557466679  -2.45328470450079  0.27472854824381
1   2.48709240945117  -0.78121549905974  -0.04271363143724
1   1.92612546123117  1.58415587083546  -0.08211808924855





