%chk=./chk/1.chk
# B3LYP/6-31G(d,p) OPT FREQ

1poly

0 1
  C   25.0226148  -11.4363432    1.9354998
  C   25.6779593  -12.0827557    2.8968473
  H   25.5689716  -10.9403003    1.1398465
  H   25.1315411  -12.5787773    3.6924636
  H   26.7625611  -12.1176347    2.8907831
  H   23.9380758  -11.4017411    1.9416112


