%chk=./chk/10.chk
# B3LYP/6-31G(d,p) OPT FREQ

10poly

0 1
  C    6.6633367   -1.8263857   -1.0603019
  C    7.5310521   -1.5723539   -2.0490364
  C    8.9181209   -2.1023955   -2.1331585
  C    9.4854053   -2.9144396   -1.2163301
  C   10.8724770   -3.4506543   -1.2909885
  C   11.7482899   -3.1955275   -2.2858409
  C   13.1336352   -3.7336087   -2.3571168
  C   13.7009721   -4.5440389   -1.4459378
  C   15.0905637   -5.0171771   -1.6248140
  C   15.6673630   -5.8255710   -0.7253827
  C   17.0561630   -6.2959652   -0.9096133
  C   17.6358407   -7.1052142   -0.0131986
  C   19.0246482   -7.5739301   -0.2016328
  C   19.6071129   -8.3841037    0.6920995
  C   20.9959363   -8.8513731    0.5000737
  C   21.5805837   -9.6622564    1.3917234
  C   22.9694165  -10.1285020    1.1971985
  C   23.5554013  -10.9397799    2.0875435
  C   24.9437826  -11.4050256    1.8913176
  C   25.5321884  -12.2137303    2.7755821
  H    6.9016265   -2.4562598   -0.2133975
  H    7.2002797   -0.9274950   -2.8577937
  H    9.4735023   -1.7892191   -3.0066607
  H    8.9226316   -3.2232407   -0.3451140
  H   11.1591037   -4.0883715   -0.4654334
  H   11.4656547   -2.5584908   -3.1127734
  H   13.7177550   -3.4357834   -3.2240039
  H   13.1602501   -4.8688611   -0.5655677
  H   15.6505344   -4.7020105   -2.5024623
  H   15.1100178   -6.1427085    0.1531309
  H   17.6124210   -5.9778934   -1.7885523
  H   17.0806486   -7.4242411    0.8660175
  H   19.5785368   -7.2538441   -1.0813378
  H   19.0541197   -8.7049914    1.5720257
  H   21.5479069   -8.5296579   -0.3802380
  H   21.0292526   -9.9845360    2.2721856
  H   23.5202561   -9.8057973    0.3165279
  H   23.0056244  -11.2632598    2.9685602
  H   25.5027572  -11.0882742    1.0148060
  H   25.0070537  -12.5523367    3.6638792
  H   26.5530052  -12.5440079    2.6125727
  H    5.6714417   -1.3873164   -1.0961584


  