%chk=checkpoint.chk
%nprocshared=4
# B3LYP/6-31G(d,p) OPT FREQ 

10poly

0 1
  C   -2.3251278    1.0848282    0.0173806
  C   -1.1144748    1.6459480   -0.0239652
  C    0.1108639    0.8218699    0.0185028
  C    1.3237313    1.3890390   -0.0231463
  C    2.5495963    0.5648905    0.0193914
  C    3.7627704    1.1315728   -0.0220983
  C    4.9879900    0.3065212    0.0205721
  C    6.2018012    0.8718672   -0.0207801
  C    7.4257469    0.0449457    0.0219978
  C    8.6406693    0.6078901   -0.0193987
  C    9.8626343   -0.2219825    0.0233805
  C   11.0790935    0.3375607   -0.0183611
  C   12.2985525   -0.4960591    0.0242724
  C   13.5167474    0.0595693   -0.0181063
  C   14.7336198   -0.7779140    0.0242685
  C   15.9534032   -0.2259108   -0.0188711
  C   17.1681764   -1.0665217    0.0232326
  C   18.3890283   -0.5170934   -0.0205318
  C   19.6018391   -1.3596672    0.0214161
  C   20.8209403   -0.8174358   -0.0222567
  H   -3.2129042    1.7081237   -0.0149620
  H   -2.4432156    0.0072203    0.0833645
  H   -1.0379727    2.7279766   -0.0899514
  H    0.0217104   -0.2601699    0.0845533
  H    1.4120821    2.4711154   -0.0891729
  H    2.4607958   -0.5171638    0.0853922
  H    3.8519113    2.2135651   -0.0880805
  H    4.8981510   -0.7754503    0.0865414
  H    6.2923436    1.9537380   -0.0867660
  H    7.3339803   -1.0368611    0.0880198
  H    8.7335337    1.6895558   -0.0855018
  H    9.7680619   -1.3035343    0.0895975
  H   11.1750544    1.4189420   -0.0847310
  H   12.2006455   -1.5772913    0.0908319
  H   13.6160850    1.1406257   -0.0848635
  H   14.6324892   -1.8588234    0.0912481
  H   16.0557034    0.8548478   -0.0860387
  H   17.0647760   -2.1472114    0.0905866
  H   18.4940124    0.5634075   -0.0880133
  H   19.5088811   -2.4403449    0.0888935
  H   20.9556337    0.2580893   -0.0898222
  H   21.6989287   -1.4544957    0.0097281


  