%chk=./chk/11.chk
# B3LYP/6-31G(d,p) OPT FREQ

11poly

0 1
  C    4.7028290   -0.5086808   -1.9524347
  C    5.2637617   -1.3014899   -1.0293519
  C    6.6509345   -1.8354720   -1.0826254
  C    7.5303496   -1.5854264   -2.0753913
  C    8.9202650   -2.1151747   -2.1408280
  C    9.4875062   -2.9191821   -1.2162578
  C   10.8768017   -3.4512672   -1.2840326
  C   11.7555621   -3.1974857   -2.2766716
  C   13.1416306   -3.7341115   -2.3425894
  C   13.7065041   -4.5446450   -1.4299841
  C   15.0962658   -5.0181317   -1.6065766
  C   15.6710700   -5.8294188   -0.7084825
  C   17.0595026   -6.3006792   -0.8933612
  C   17.6385580   -7.1135627    0.0001459
  C   19.0269644   -7.5824164   -0.1910375
  C   19.6108474   -8.3950526    0.6994991
  C   20.9996170   -8.8609108    0.5034851
  C   21.5878406   -9.6720681    1.3924925
  C   22.9770749  -10.1352763    1.1934006
  C   23.5682722  -10.9448040    2.0818551
  C   24.9573569  -11.4059780    1.8808694
  C   25.5516961  -12.2119045    2.7636803
  H    5.2233105   -0.1781456   -2.8416207
  H    4.6610803   -1.5807564   -0.1702399
  H    6.9307966   -2.4627712   -0.2473286
  H    7.2422716   -0.9563009   -2.9074308
  H    9.4805384   -1.8079465   -3.0133165
  H    8.9262282   -3.2269871   -0.3444806
  H   11.1624602   -4.0856077   -0.4554946
  H   11.4750922   -2.5635291   -3.1065889
  H   13.7281109   -3.4363714   -3.2079275
  H   13.1632802   -4.8703594   -0.5514482
  H   15.6579406   -4.7015504   -2.4826485
  H   15.1124051   -6.1487278    0.1683937
  H   17.6162107   -5.9802801   -1.7711915
  H   17.0834737   -7.4352518    0.8784504
  H   19.5797968   -7.2598747   -1.0705289
  H   19.0595309   -8.7183678    1.5795820
  H   21.5490441   -8.5371848   -0.3776958
  H   21.0395875   -9.9961438    2.2742110
  H   23.5242239   -9.8111862    0.3109271
  H   23.0225180  -11.2694549    2.9649328
  H   25.5120810  -11.0882373    1.0020068
  H   25.0310562  -12.5512570    3.6543241
  H   26.5729741  -12.5389912    2.5971246
  H    3.6793232   -0.1742001   -1.8165486


  