%chk=./chk/12.chk
# B3LYP/6-31G(d,p) OPT FREQ

12poly

0 1
  C    2.4861705   -0.0248394   -0.8987449
  C    3.3705052    0.2157528   -1.8759925
  C    4.7473959   -0.3420645   -1.9463287
  C    5.2875648   -1.1694680   -1.0266577
  C    6.6647641   -1.7329163   -1.0870519
  C    7.5564339   -1.4915337   -2.0714118
  C    8.9343451   -2.0519102   -2.1343687
  C    9.4802056   -2.8770858   -1.2153371
  C   10.8603133   -3.4337898   -1.2813181
  C   11.7466118   -3.1883063   -2.2692311
  C   13.1253804   -3.7427504   -2.3328886
  C   13.6798713   -4.5601193   -1.4199651
  C   15.0664407   -5.0434948   -1.5952220
  C   15.6385944   -5.8554377   -0.6959272
  C   17.0262612   -6.3287290   -0.8820786
  C   17.6090032   -7.1379980    0.0123999
  C   18.9982222   -7.6031154   -0.1826898
  C   19.5900116   -8.4102514    0.7076921
  C   20.9803718   -8.8689271    0.5054711
  C   21.5787261   -9.6745812    1.3927600
  C   22.9697759  -10.1290228    1.1858014
  C   23.5719109  -10.9338733    2.0711753
  C   24.9627877  -11.3858022    1.8614746
  C   25.5681249  -12.1876845    2.7404919
  H    2.7015610   -0.6632288   -0.0520957
  H    3.0625751    0.8709129   -2.6855195
  H    5.3188576   -0.0359061   -2.8118377
  H    4.7083878   -1.4704155   -0.1634875
  H    6.9279994   -2.3780462   -0.2598184
  H    7.2928841   -0.8464879   -2.8985015
  H    9.5057481   -1.7464895   -3.0001083
  H    8.9085543   -3.1818892   -0.3492521
  H   11.1331914   -4.0776965   -0.4556632
  H   11.4793755   -2.5458261   -3.0968503
  H   13.7172744   -3.4495470   -3.1960742
  H   13.1320903   -4.8805581   -0.5422242
  H   15.6299974   -4.7306313   -2.4714197
  H   15.0801605   -6.1708636    0.1824038
  H   17.5809314   -6.0105860   -1.7620102
  H   17.0576422   -7.4575592    0.8937267
  H   19.5461121   -7.2810854   -1.0654446
  H   19.0447500   -8.7334022    1.5915167
  H   21.5230960   -8.5439340   -0.3793783
  H   21.0377720  -10.0003329    2.2782956
  H   23.5094076   -9.8022181    0.2997139
  H   23.0339136  -11.2615331    2.9578490
  H   25.5098286  -11.0644808    0.9791000
  H   25.0554499  -12.5305147    3.6343925
  H   26.5904907  -12.5079234    2.5673752
  H    1.5039672    0.4346678   -0.9442152


  