%chk=./chk/14.chk
# B3LYP/6-31G(d,p) OPT FREQ

14poly

0 1
  C   -2.1038425    0.7947988    0.6762439
  C   -1.1651505    1.0303631   -0.2431735
  C    0.1663043    0.3957866   -0.1562913
  C    1.1032043    0.6354791   -1.0832613
  C    2.4377642    0.0030408   -1.0028382
  C    3.3659287    0.2517368   -1.9433559
  C    4.7378094   -0.3223729   -1.9730978
  C    5.2413688   -1.1720054   -1.0523082
  C    6.6157707   -1.7470961   -1.0838388
  C    7.5338352   -1.4976251   -2.0414953
  C    8.9081580   -2.0668697   -2.0828151
  C    9.4321746   -2.9079184   -1.1653638
  C   10.8113230   -3.4710723   -1.2174546
  C   11.7102867   -3.2187363   -2.1922167
  C   13.0874027   -3.7760783   -2.2491482
  C   13.6353766   -4.6020737   -1.3402635
  C   15.0229170   -5.0826441   -1.5169391
  C   15.5993457   -5.9002951   -0.6256209
  C   16.9888307   -6.3644640   -0.8226249
  C   17.5847056   -7.1760934    0.0609602
  C   18.9762477   -7.6269697   -0.1516732
  C   19.5875811   -8.4330869    0.7262982
  C   20.9805695   -8.8738704    0.5024266
  C   21.6025989   -9.6756179    1.3768418
  C   22.9964434  -10.1099557    1.1461287
  C   23.6244637  -10.9089145    2.0187380
  C   25.0181775  -11.3397517    1.7845036
  C   25.6500691  -12.1347861    2.6509502
  H   -1.9155959    0.1300967    1.5141622
  H   -1.3927036    1.7018450   -1.0668860
  H    0.3834797   -0.2741169    0.6725563
  H    0.8816494    1.3057666   -1.9108765
  H    2.6412914   -0.6606701   -0.1714026
  H    3.1128695    0.9245014   -2.7587481
  H    5.3397846   -0.0064108   -2.8136917
  H    4.6343428   -1.4834216   -0.2125004
  H    6.8537675   -2.4083560   -0.2613370
  H    7.2967864   -0.8382910   -2.8649861
  H    9.4967820   -1.7523820   -2.9332914
  H    8.8423370   -3.2200420   -0.3138846
  H   11.0725178   -4.1256396   -0.3960617
  H   11.4558972   -2.5673514   -3.0165863
  H   13.6853134   -3.4760515   -3.1058747
  H   13.0825620   -4.9294295   -0.4679934
  H   15.5856676   -4.7612361   -2.3906455
  H   15.0448995   -6.2254558    0.2515639
  H   17.5355662   -6.0359817   -1.7037920
  H   17.0438125   -7.5066574    0.9446081
  H   19.5108124   -7.2938793   -1.0385334
  H   19.0574030   -8.7675122    1.6150107
  H   21.5063650   -8.5378764   -0.3885469
  H   21.0796283  -10.0123262    2.2689987
  H   23.5171061   -9.7725611    0.2526695
  H   23.1059483  -11.2470353    2.9130193
  H   25.5455619  -11.0080826    0.8940096
  H   25.1577219  -12.4874122    3.5524112
  H   26.6740230  -12.4393043    2.4597229
  H   -3.0753491    1.2713113    0.5932020


  