%chk=checkpoint.chk
%nprocshared=4
# B3LYP/6-31G(d,p) OPT FREQ 

14poly

0 1
  C   -2.3787809    1.1159533    0.0182291
  C   -1.1634381    1.6668136   -0.0228504
  C    0.0550081    0.8324862    0.0194040
  C    1.2723971    1.3897839   -0.0221364
  C    2.4919908    0.5562178    0.0200160
  C    3.7089957    1.1144503   -0.0216789
  C    4.9294580    0.2821523    0.0203409
  C    6.1456868    0.8420626   -0.0214976
  C    7.3675783    0.0118660    0.0203986
  C    8.5826692    0.5742681   -0.0214604
  C    9.8064824   -0.2530700    0.0203808
  C   11.0201575    0.3124433   -0.0213030
  C   12.2461616   -0.5115969    0.0205726
  C   13.4583364    0.0572099   -0.0207746
  C   14.6864443   -0.7636335    0.0211827
  C   15.8973034   -0.1919538   -0.0198238
  C   17.1270256   -1.0103321    0.0221675
  C   18.3370165   -0.4367831   -0.0187163
  C   19.5675599   -1.2539201    0.0231611
  C   20.7772757   -0.6798272   -0.0179880
  C   22.0077804   -1.4970659    0.0235869
  C   23.2177623   -0.9236371   -0.0182167
  C   24.4475968   -1.7419655    0.0229271
  C   25.6581447   -1.1698592   -0.0197152
  C   26.8871239   -1.9895639    0.0210114
  C   28.0981720   -1.4187392   -0.0223335
  C   29.3257859   -2.2396202    0.0181532
  C   30.5349827   -1.6755746   -0.0251419
  H   -3.2612340    1.7467853   -0.0139836
  H   -2.5059800    0.0393746    0.0838465
  H   -1.0778688    2.7482029   -0.0884952
  H   -0.0429829   -0.2487900    0.0851361
  H    1.3692431    2.4711790   -0.0878845
  H    2.3954478   -0.5251618    0.0857859
  H    3.8050403    2.1959024   -0.0874632
  H    4.8342677   -0.7993401    0.0861380
  H    6.2400791    1.9236615   -0.0872846
  H    7.2744434   -1.0698045    0.0861625
  H    8.6747307    1.6560723   -0.0871716
  H    9.7159822   -1.3349718    0.0860156
  H   11.1094301    1.3944894   -0.0868438
  H   12.1585378   -1.5937509    0.0859903
  H   13.5447778    1.1394963   -0.0860845
  H   14.6014435   -1.8460146    0.0863597
  H   15.9813949    0.8905269   -0.0849264
  H   17.0438818   -2.0928703    0.0871838
  H   18.4196995    0.6458089   -0.0837374
  H   19.4851754   -2.3365180    0.0881915
  H   20.8596886    0.4027780   -0.0831202
  H   21.9250746   -2.5796285    0.0888342
  H   23.3008566    0.1588981   -0.0836368
  H   24.3638846   -2.8244330    0.0885254
  H   25.7423628   -0.0874340   -0.0854953
  H   26.8024777   -3.0719585    0.0869548
  H   28.1840955   -0.3364513   -0.0884065
  H   29.2521463   -3.3218616    0.0842066
  H   30.6503729   -0.5977051   -0.0913059
  H   31.4242797   -2.2967967    0.0057336


