%chk=./chk/15.chk
# B3LYP/6-31G(d,p) OPT FREQ

15poly

0 1
  C   -4.4738999    1.1310223    1.3043660
  C   -3.4977349    1.3911597    0.4318069
  C   -2.1725004    0.7492243    0.5532830
  C   -1.1987393    1.0127600   -0.3277357
  C    0.1284083    0.3720955   -0.2130012
  C    1.0948068    0.6353522   -1.1025092
  C    2.4256493   -0.0021888   -1.0019717
  C    3.3763285    0.2684635   -1.9133461
  C    4.7468361   -0.3082665   -1.9287247
  C    5.2327213   -1.1778983   -1.0171432
  C    6.6061408   -1.7570989   -1.0406807
  C    7.5340887   -1.4979475   -1.9862453
  C    8.9059662   -2.0721667   -2.0258210
  C    9.4237237   -2.9231594   -1.1140878
  C   10.8009190   -3.4918701   -1.1693624
  C   11.6980049   -3.2417895   -2.1465603
  C   13.0723283   -3.8044826   -2.2104636
  C   13.6238139   -4.6298424   -1.3032600
  C   15.0085196   -5.1147851   -1.4903451
  C   15.5930915   -5.9281507   -0.6004515
  C   16.9798802   -6.3947253   -0.8107538
  C   17.5876403   -7.1982179    0.0721516
  C   18.9766113   -7.6498373   -0.1554622
  C   19.6025515   -8.4443017    0.7228280
  C   20.9930777   -8.8846172    0.4831244
  C   21.6315200   -9.6719406    1.3588118
  C   23.0229786  -10.1050732    1.1119066
  C   23.6684387  -10.8878030    1.9864960
  C   25.0597921  -11.3171209    1.7359632
  C   25.7094347  -12.0951911    2.6046790
  H   -4.3218238    0.4402330    2.1283995
  H   -3.6898032    2.0882659   -0.3795841
  H   -1.9904168    0.0536973    1.3693857
  H   -1.3839839    1.7079090   -1.1436820
  H    0.3174004   -0.3219530    0.6027207
  H    0.8995263    1.3288000   -1.9176063
  H    2.6073810   -0.6884335   -0.1836786
  H    3.1432248    0.9616946   -2.7175127
  H    5.3634830    0.0238350   -2.7520785
  H    4.6107781   -1.5034341   -0.1935599
  H    6.8339273   -2.4318194   -0.2260673
  H    7.3070969   -0.8276837   -2.8035376
  H    9.4984890   -1.7520694   -2.8713317
  H    8.8300140   -3.2389485   -0.2665027
  H   11.0617740   -4.1498515   -0.3504640
  H   11.4437966   -2.5891070   -2.9698262
  H   13.6655111   -3.5085542   -3.0719132
  H   13.0763614   -4.9524266   -0.4257685
  H   15.5631399   -4.7993889   -2.3714389
  H   15.0480460   -6.2470401    0.2848365
  H   17.5153564   -6.0739493   -1.7016377
  H   17.0589866   -7.5206205    0.9661187
  H   19.4976044   -7.3262364   -1.0538448
  H   19.0866202   -8.7687348    1.6235165
  H   21.5037439   -8.5596989   -0.4206663
  H   21.1240897   -9.9971529    2.2640886
  H   23.5275927   -9.7799222    0.2048041
  H   23.1661788  -11.2134076    2.8945788
  H   25.5708074  -10.9982218    0.8313709
  H   25.2337825  -12.4346242    3.5200536
  H   26.7312973  -12.3988542    2.4012860
  H   -5.4400471    1.6133909    1.1962553


  