%chk=./chk/16.chk
# B3LYP/6-31G(d,p) OPT FREQ

16poly

0 1
  C   -6.8409209    1.5024396    1.9161825
  C   -5.8423260    1.7684713    1.0711961
  C   -4.5208914    1.1250789    1.2225395
  C   -3.5243535    1.3941230    0.3690534
  C   -2.2012780    0.7511782    0.5138022
  C   -1.2118813    1.0186718   -0.3484494
  C    0.1132288    0.3769253   -0.2167988
  C    1.0901564    0.6427851   -1.0939669
  C    2.4196583    0.0040149   -0.9837763
  C    3.3759739    0.2760018   -1.8888436
  C    4.7455360   -0.3023637   -1.8998227
  C    5.2278382   -1.1736000   -0.9879584
  C    6.6003711   -1.7555869   -1.0105973
  C    7.5279449   -1.5000740   -1.9576214
  C    8.8981898   -2.0776436   -1.9991334
  C    9.4168574   -2.9272756   -1.0867321
  C   10.7925589   -3.4996207   -1.1458464
  C   11.6850502   -3.2566599   -2.1291105
  C   13.0576271   -3.8227853   -2.1980470
  C   13.6133085   -4.6435904   -1.2893477
  C   14.9959081   -5.1320872   -1.4828656
  C   15.5861182   -5.9397939   -0.5915841
  C   16.9708635   -6.4091841   -0.8091557
  C   17.5854354   -7.2057675    0.0752567
  C   18.9724246   -7.6595814   -0.1600823
  C   19.6060128   -8.4460084    0.7199243
  C   20.9946076   -8.8880718    0.4722806
  C   21.6412377   -9.6664883    1.3498968
  C   23.0307979  -10.1010988    1.0949705
  C   23.6847428  -10.8743721    1.9716511
  C   25.0742079  -11.3050517    1.7130758
  C   25.7323976  -12.0734857    2.5839264
  H   -6.7104508    0.8057077    2.7389279
  H   -6.0130747    2.4713727    0.2600474
  H   -4.3604562    0.4236207    2.0381162
  H   -3.6877924    2.0950362   -0.4466176
  H   -2.0341895    0.0511753    1.3292420
  H   -1.3833672    1.7174765   -1.1642998
  H    0.2911825   -0.3205153    0.5984760
  H    0.9037179    1.3388899   -1.9089178
  H    2.5953002   -0.6848704   -0.1662644
  H    3.1479073    0.9709724   -2.6929855
  H    5.3645209    0.0297514   -2.7213238
  H    4.6032688   -1.4983833   -0.1659534
  H    6.8274650   -2.4300071   -0.1954777
  H    7.3016422   -0.8310911   -2.7760664
  H    9.4886821   -1.7612230   -2.8474041
  H    8.8251218   -3.2387860   -0.2361225
  H   11.0561809   -4.1543965   -0.3252389
  H   11.4280398   -2.6078624   -2.9545205
  H   13.6459133   -3.5333207   -3.0650562
  H   13.0709857   -4.9594577   -0.4062094
  H   15.5445443   -4.8236691   -2.3701791
  H   15.0474814   -6.2515801    0.3001302
  H   17.4993842   -6.0958637   -1.7068413
  H   17.0640596   -7.5205298    0.9761954
  H   19.4857611   -7.3439598   -1.0656988
  H   19.0979566   -8.7622736    1.6279685
  H   21.4971572   -8.5716038   -0.4390393
  H   21.1420542   -9.9831010    2.2627797
  H   23.5270325   -9.7847438    0.1801594
  H   23.1909282  -11.1910882    2.8874795
  H   25.5767708  -10.9950828    0.8006738
  H   25.2653338  -12.4038123    3.5070232
  H   26.7526934  -12.3783243    2.3745104
  H   -7.8038715    1.9858589    1.7864415


  