%chk=./chk/17.chk
# B3LYP/6-31G(d,p) OPT FREQ

17poly

0 1
  C   -9.2622565    1.8847070    2.3588632
  C   -8.2299473    2.1585595    1.5580187
  C   -6.9152273    1.5147708    1.7582768
  C   -5.8848007    1.7912990    0.9484837
  C   -4.5684492    1.1472082    1.1414841
  C   -3.5454657    1.4208518    0.3213020
  C   -2.2271652    0.7763502    0.4995729
  C   -1.2176685    1.0457144   -0.3385588
  C    0.1037185    0.4013670   -0.1836352
  C    1.0935729    0.6661739   -1.0466674
  C    2.4201765    0.0236766   -0.9238725
  C    3.3821739    0.2916992   -1.8241765
  C    4.7489130   -0.2922738   -1.8309243
  C    5.2276382   -1.1621570   -0.9160756
  C    6.5972370   -1.7519275   -0.9401666
  C    7.5198727   -1.5105763   -1.8959014
  C    8.8857295   -2.0972066   -1.9437867
  C    9.4092140   -2.9388848   -1.0270165
  C   10.7806392   -3.5210088   -1.0960773
  C   11.6593154   -3.3006229   -2.0971749
  C   13.0270473   -3.8762757   -2.1784376
  C   13.5945501   -4.6817616   -1.2636814
  C   14.9710330   -5.1810582   -1.4729204
  C   15.5760613   -5.9710516   -0.5760212
  C   16.9547156   -6.4499424   -0.8112074
  C   17.5866630   -7.2260168    0.0788744
  C   18.9676382   -7.6881361   -0.1751863
  C   19.6204871   -8.4514853    0.7107684
  C   21.0031564   -8.9009326    0.4438269
  C   21.6703011   -9.6542695    1.3277312
  C   23.0540045  -10.0956704    1.0532434
  C   23.7291714  -10.8426047    1.9365022
  C   25.1128012  -11.2798022    1.6582570
  C   25.7923586  -12.0215394    2.5357569
  H   -9.1650695    1.1811911    3.1804285
  H   -8.3679117    2.8680259    0.7463587
  H   -6.7877785    0.8065854    2.5738311
  H   -6.0153788    2.4986980    0.1325158
  H   -4.4341771    0.4406065    1.9572484
  H   -3.6844001    2.1257407   -0.4954727
  H   -2.0812372    0.0727161    1.3158425
  H   -1.3710099    1.7469182   -1.1559745
  H    0.2670548   -0.2981507    0.6327974
  H    0.9186137    1.3631001   -1.8634729
  H    2.5883030   -0.6659326   -0.1053008
  H    3.1601293    0.9859833   -2.6305815
  H    5.3687590    0.0341797   -2.6539579
  H    4.6019260   -1.4798653   -0.0919499
  H    6.8257703   -2.4212446   -0.1211950
  H    7.2919269   -0.8486543   -2.7194077
  H    9.4686694   -1.7944490   -2.8021853
  H    8.8251038   -3.2353782   -0.1656529
  H   11.0528241   -4.1639292   -0.2689304
  H   11.3935022   -2.6652271   -2.9300041
  H   13.6014246   -3.6072200   -3.0613197
  H   13.0667143   -4.9765568   -0.3644722
  H   15.5033243   -4.8945014   -2.3774873
  H   15.0546954   -6.2606235    0.3333596
  H   17.4647145   -6.1597585   -1.7273270
  H   17.0845279   -7.5171719    0.9985789
  H   19.4608462   -7.3969753   -1.1000961
  H   19.1330544   -8.7428203    1.6383376
  H   21.4845054   -8.6100861   -0.4873537
  H   21.1926142   -9.9448909    2.2606142
  H   23.5284191   -9.8057756    0.1182462
  H   23.2573217  -11.1326295    2.8725756
  H   25.5933753  -10.9966107    0.7255009
  H   25.3475881  -12.3246494    3.4789981
  H   26.8079082  -12.3316766    2.3115595
  H  -10.2195743    2.3684461    2.1935138


  