%chk=./chk/18.chk
# B3LYP/6-31G(d,p) OPT FREQ

18poly

0 1
  C  -11.0541282    3.2842082    1.0933021
  C  -10.6949494    2.4097157    2.0426133
  C   -9.3317253    1.8409271    2.2094954
  C   -8.2775416    2.1326812    1.4279827
  C   -6.9596677    1.5080542    1.6735188
  C   -5.9096894    1.7903467    0.8909127
  C   -4.5920329    1.1616720    1.1222484
  C   -3.5543596    1.4373064    0.3214161
  C   -2.2348518    0.8038530    0.5280315
  C   -1.2161972    1.0702437   -0.2999442
  C    0.1059482    0.4321018   -0.1270529
  C    1.0991161    0.6888730   -0.9887546
  C    2.4256095    0.0478977   -0.8576818
  C    3.3854232    0.3035877   -1.7638854
  C    4.7501739   -0.2842695   -1.7703805
  C    5.2317042   -1.1446737   -0.8481550
  C    6.5983099   -1.7416316   -0.8765624
  C    7.5114299   -1.5203826   -1.8462566
  C    8.8728122   -2.1161128   -1.9019589
  C    9.4036931   -2.9457239   -0.9785461
  C   10.7704248   -3.5378373   -1.0577680
  C   11.6337189   -3.3429764   -2.0774190
  C   12.9964308   -3.9283349   -2.1701651
  C   13.5759533   -4.7169798   -1.2483724
  C   14.9460826   -5.2275059   -1.4716387
  C   15.5651688   -5.9989331   -0.5682306
  C   16.9375955   -6.4878781   -0.8186245
  C   17.5855479   -7.2431788    0.0777733
  C   18.9604731   -7.7141785   -0.1922593
  C   19.6308523   -8.4547088    0.6999313
  C   21.0076323   -8.9120916    0.4165589
  C   21.6933535   -9.6410358    1.3066656
  C   23.0712805  -10.0897551    1.0155065
  C   23.7656134  -10.8113338    1.9049552
  C   25.1435137  -11.2555751    1.6099465
  C   25.8423352  -11.9717334    2.4935399
  H  -10.3646115    3.6604738    0.3487443
  H  -11.4548936    2.0864442    2.7475872
  H   -9.1988848    1.1386649    3.0280363
  H   -8.3695124    2.8271512    0.6013044
  H   -6.8460201    0.8073138    2.4974584
  H   -6.0257664    2.4889420    0.0652531
  H   -4.4699729    0.4626781    1.9463868
  H   -3.6832982    2.1331453   -0.5047331
  H   -2.0968955    0.1083174    1.3525268
  H   -1.3639578    1.7617749   -1.1266132
  H    0.2656721   -0.2587039    0.6974137
  H    0.9255047    1.3756663   -1.8144225
  H    2.5943588   -0.6327233   -0.0316799
  H    3.1617843    0.9879095   -2.5783501
  H    5.3654134    0.0296143   -2.6016396
  H    4.6103186   -1.4492612   -0.0157448
  H    6.8322035   -2.4001795   -0.0503436
  H    7.2778803   -0.8705449   -2.6776929
  H    9.4456348   -1.8311948   -2.7731271
  H    8.8297658   -3.2236042   -0.1041673
  H   11.0523116   -4.1663088   -0.2227611
  H   11.3579527   -2.7230656   -2.9185881
  H   13.5564792   -3.6814386   -3.0686016
  H   13.0629056   -4.9890764   -0.3335571
  H   15.4624120   -4.9640895   -2.3923590
  H   15.0604509   -6.2649934    0.3575574
  H   17.4300989   -6.2217123   -1.7514629
  H   17.1014809   -7.5098868    1.0144064
  H   19.4349833   -7.4479241   -1.1342989
  H   19.1625348   -8.7207431    1.6447752
  H   21.4694447   -8.6469037   -0.5320137
  H   21.2354617   -9.9057072    2.2570240
  H   23.5256626   -9.8260373    0.0629747
  H   23.3139230  -11.0750086    2.8585947
  H   25.6039297  -10.9986974    0.6595702
  H   25.4179866  -12.2481426    3.4542268
  H   26.8532656  -12.2875527    2.2567550
  H  -12.0787293    3.6401459    1.0557948


  