%chk=checkpoint.chk
%nprocshared=4
# B3LYP/6-31G(d,p) OPT FREQ 

19poly

0 1
  C   -2.3750861    1.1266466    0.0160466
  C   -1.1605774    1.6795056   -0.0231593
  C    0.0590417    0.8468898    0.0178538
  C    1.2757630    1.4058219   -0.0218229
  C    2.4960636    0.5733152    0.0191658
  C    3.7128552    1.1321835   -0.0207206
  C    4.9330988    0.2995964    0.0202519
  C    6.1498765    0.8584460   -0.0199319
  C    7.3702062    0.0259682    0.0210212
  C    8.5868336    0.5850954   -0.0195228
  C    9.8075443   -0.2468473    0.0214164
  C   11.0237671    0.3131089   -0.0195155
  C   12.2453262   -0.5176100    0.0214257
  C   13.4607720    0.0439849   -0.0198839
  C   14.6838073   -0.7845752    0.0210841
  C   15.8980019   -0.2203153   -0.0205584
  C   17.1232576   -1.0455940    0.0204680
  C   18.3356577   -0.4775073   -0.0214353
  C   19.5639248   -1.2982898    0.0196838
  C   20.7739649   -0.7251932   -0.0223912
  C   22.0059949   -1.5402943    0.0188537
  C   23.2131451   -0.9611158   -0.0232986
  C   24.4495566   -1.7695182    0.0181003
  C   25.6533875   -1.1834349   -0.0240414
  C   26.8945793   -1.9844281    0.0175312
  C   28.0948266   -1.3909913   -0.0245289
  C   29.3409095   -2.1842948    0.0172261
  C   30.5375295   -1.5835235   -0.0247078
  C   31.7882893   -2.3693708    0.0172249
  C   32.9814930   -1.7617925   -0.0245705
  C   34.2363952   -2.5409533    0.0175214
  C   35.4266473   -1.9275754   -0.0241563
  C   36.6848904   -2.7012941    0.0180636
  C   37.8728632   -2.0834936   -0.0235420
  C   39.1334842   -2.8533320    0.0187671
  C   40.3199423   -2.2326802   -0.0228196
  C   41.5816444   -3.0003715    0.0195469
  C   42.7665217   -2.3809830   -0.0218974
  H   -3.2585287    1.7561279   -0.0151921
  H   -2.5006224    0.0497116    0.0791604
  H   -1.0765958    2.7611574   -0.0863136
  H   -0.0375495   -0.2346697    0.0811358
  H    1.3714719    2.4874534   -0.0851378
  H    2.4001567   -0.5082732    0.0825970
  H    3.8087810    2.2137732   -0.0842058
  H    4.8371842   -0.7819732    0.0839068
  H    6.2457432    1.9400297   -0.0836545
  H    7.2745058   -1.0555984    0.0849572
  H    8.6823237    1.6666998   -0.0835305
  H    9.7125031   -1.3284467    0.0856699
  H   11.1183393    1.3947813   -0.0838334
  H   12.1516149   -1.5992979    0.0860095
  H   13.5536653    1.1257912   -0.0845139
  H   14.5922956   -1.8664236    0.0859875
  H   15.9882782    0.8617030   -0.0854806
  H   17.0349521   -2.1276827    0.0856597
  H   18.4222786    0.6048025   -0.0866127
  H   19.4798765   -2.3806948    0.0851175
  H   20.8558940    0.3574768   -0.0877755
  H   21.9271866   -2.6230757    0.0844741
  H   23.2894657    0.1219604   -0.0888369
  H   24.3767822   -2.8527101    0.0838497
  H   25.7234228   -0.0999371   -0.0896830
  H   26.8283281   -3.0680330    0.0833570
  H   28.1582478   -0.3070898   -0.0902316
  H   29.2812733   -3.2682845    0.0830865
  H   30.5944333   -0.4992651   -0.0904429
  H   31.7349102   -3.4536918    0.0830941
  H   33.0324301   -0.6772443   -0.0903258
  H   34.1884731   -3.6255373    0.0833911
  H   35.4725849   -0.8428130   -0.0899353
  H   36.6412638   -3.7860680    0.0839407
  H   37.9150751   -0.9985899   -0.0893588
  H   39.0928535   -3.9382353    0.0846660
  H   40.3601374   -1.1477015   -0.0886891
  H   41.5476517   -4.0851041    0.0854459
  H   42.8184545   -1.2973239   -0.0877800
  H   43.7550746   -2.9982637    0.0113074

