%chk=./chk/19.chk
# B3LYP/6-31G(d,p) OPT FREQ

19poly

0 1
  C  -13.5576855    3.4174422    1.2937124
  C  -12.4746609    3.7281984    0.5690453
  C  -11.1017991    3.2097011    0.8096272
  C  -10.7664395    2.3548191    1.7989098
  C   -9.3948795    1.8287722    2.0388843
  C   -8.3095874    2.1353353    1.3066713
  C   -6.9914483    1.5432554    1.6223933
  C   -5.9157635    1.8348461    0.8793029
  C   -4.5969793    1.2320898    1.1661231
  C   -3.5411616    1.5086218    0.3899285
  C   -2.2201837    0.8925932    0.6353874
  C   -1.1923795    1.1488418   -0.1842431
  C    0.1302485    0.5184747    0.0108560
  C    1.1227297    0.7534504   -0.8576603
  C    2.4473964    0.1106371   -0.7193281
  C    3.3970737    0.3342497   -1.6443020
  C    4.7554706   -0.2668410   -1.6562019
  C    5.2451803   -1.1050014   -0.7179805
  C    6.6031746   -1.7210647   -0.7582773
  C    7.4919780   -1.5493959   -1.7600102
  C    8.8421176   -2.1674631   -1.8324941
  C    9.3903002   -2.9672513   -0.8930679
  C   10.7455210   -3.5826991   -0.9922846
  C   11.5733114   -3.4483055   -2.0503790
  C   12.9243486   -4.0556279   -2.1648836
  C   13.5308088   -4.8037540   -1.2268471
  C   14.8865153   -5.3395286   -1.4767781
  C   15.5368032   -6.0667364   -0.5587265
  C   16.8952887   -6.5780690   -0.8383513
  C   17.5786749   -7.2846478    0.0713797
  C   18.9401471   -7.7751949   -0.2299462
  C   19.6493177   -8.4629936    0.6743970
  C   21.0130178   -8.9376473    0.3582385
  C   21.7398181   -9.6108965    1.2595606
  C   23.1048999  -10.0754112    0.9347071
  C   23.8415673  -10.7395765    1.8347676
  C   25.2067151  -11.1989618    1.5056749
  C   25.9480417  -11.8574397    2.3994374
  H  -13.5274271    2.7443111    2.1403139
  H  -12.6037192    4.4128365   -0.2640575
  H  -10.3511567    3.5677836    0.1180424
  H  -11.5213404    1.9987119    2.4875745
  H   -9.2834358    1.1405795    2.8726293
  H   -8.3728717    2.8142042    0.4653247
  H   -6.8998694    0.8556666    2.4600497
  H   -6.0126104    2.5180311    0.0382995
  H   -4.4907094    0.5471223    2.0041075
  H   -3.6579510    2.1875024   -0.4521244
  H   -2.0909219    0.2131531    1.4745807
  H   -1.3352127    1.8211180   -1.0276426
  H    0.2882296   -0.1538003    0.8508306
  H    0.9473541    1.4188764   -1.7004210
  H    2.6208593   -0.5495475    0.1222873
  H    3.1671802    0.9964383   -2.4752628
  H    5.3574610    0.0151645   -2.5081610
  H    4.6370239   -1.3762994    0.1355162
  H    6.8503847   -2.3531610    0.0846928
  H    7.2442698   -0.9286070   -2.6092820
  H    9.3908555   -1.9261018   -2.7317367
  H    8.8408795   -3.1998386    0.0098610
  H   11.0494938   -4.1761548   -0.1394792
  H   11.2748047   -2.8653990   -2.9099944
  H   13.4520574   -3.8608336   -3.0951185
  H   13.0511714   -5.0224317   -0.2801217
  H   15.3672596   -5.1301216   -2.4300379
  H   15.0691699   -6.2779068    0.4000247
  H   17.3490248   -6.3674052   -1.8044183
  H   17.1346766   -7.4949613    1.0415555
  H   19.3732939   -7.5658409   -1.2056464
  H   19.2233329   -8.6713636    1.6530862
  H   21.4316211   -8.7304767   -0.6242017
  H   21.3257355   -9.8170137    2.2438677
  H   23.5149872   -9.8704328   -0.0517547
  H   23.4344562  -10.9442017    2.8223440
  H   25.6225769  -11.0008804    0.5212976
  H   25.5688185  -12.0741946    3.3937061
  H   26.9486974  -12.1855215    2.1370755
  H  -14.5168342    3.8523953    1.0313911


  