%chk=./chk/2.chk
# B3LYP/6-31G(d,p) OPT FREQ

2poly

0 1
  C   22.9344061  -10.2793836    1.1655503
  C   23.5596246  -11.0272771    2.0776063
  C   25.0094032  -11.2922014    1.9830839
  C   25.6345326  -12.0404793    2.8948858
  H   23.4742157   -9.8451984    0.3290991
  H   22.9851656  -11.4445883    2.9003518
  H   25.5839202  -10.8746398    1.1605058
  H   25.0946393  -12.4750202    3.7310983
  H   26.7006450  -12.2234601    2.8075371
  H   21.8682829  -10.0964518    1.2528707


  