%chk=checkpoint.chk
%nprocshared=4
# B3LYP/6-31G(d,p) OPT FREQ 

20poly

0 1
  C   -2.3754600    1.1264377    0.0158958
  C   -1.1610799    1.6795964   -0.0230563
  C    0.0587234    0.8472453    0.0177199
  C    1.2753238    1.4064545   -0.0217115
  C    2.4957796    0.5741741    0.0190453
  C    3.7124742    1.1332625   -0.0206140
  C    4.9328209    0.3008283    0.0201369
  C    6.1495403    0.8598079   -0.0198422
  C    7.3699023    0.0273814    0.0209064
  C    8.5865200    0.5865266   -0.0194574
  C    9.8071831   -0.2454801    0.0213014
  C   11.0234474    0.3143767   -0.0194757
  C   12.2448818   -0.5165177    0.0213147
  C   13.4604157    0.0448721   -0.0198670
  C   14.6832626   -0.7839559    0.0209839
  C   15.8975814   -0.2199817   -0.0205595
  C   17.1226055   -1.0455915    0.0203857
  C   18.3351523   -0.4778397   -0.0214493
  C   19.5631679   -1.2989835    0.0196260
  C   20.7733627   -0.7262375   -0.0224129
  C   22.0051441   -1.5416974    0.0188262
  C   23.2124421   -0.9628528   -0.0233223
  C   24.4486313   -1.7715774    0.0181084
  C   25.6525855   -1.1857756   -0.0240615
  C   26.8936088   -1.9870128    0.0175789
  C   28.0939309   -1.3937581   -0.0245422
  C   29.3399365   -2.1871679    0.0173129
  C   30.5365475   -1.5864115   -0.0247162
  C   31.7873726   -2.3721422    0.0173437
  C   32.9804349   -1.7643199   -0.0245820
  C   34.2356088   -2.5430314    0.0176584
  C   35.4255296   -1.9290428   -0.0241827
  C   36.6843166   -2.7018622    0.0182023
  C   37.8717135   -2.0829838   -0.0235948
  C   39.1331971   -2.8513832    0.0188928
  C   40.3188245   -2.2291138   -0.0229075
  C   41.5820318   -2.9947101    0.0196413
  C   42.7666210   -2.3705964   -0.0221944
  C   44.0299187   -3.1351308    0.0203994
  C   45.2122840   -2.5166016   -0.0210904
  H   -3.2590497    1.7557200   -0.0151611
  H   -2.5007436    0.0494497    0.0786205
  H   -1.0773429    2.7612895   -0.0858230
  H   -0.0376316   -0.2343585    0.0806222
  H    1.3708151    2.4881272   -0.0846499
  H    2.4000651   -0.5074537    0.0821164
  H    3.8082389    2.2148874   -0.0837441
  H    4.8370258   -0.7807729    0.0834601
  H    6.2453291    1.9414179   -0.0832390
  H    7.2742270   -1.0542067    0.0845461
  H    8.6820314    1.6681466   -0.0831750
  H    9.7120648   -1.3270897    0.0852997
  H   11.1181414    1.3960537   -0.0835447
  H   12.1509983   -1.5982051    0.0856891
  H   13.5535180    1.1266733   -0.0842940
  H   14.5915033   -1.8657948    0.0857279
  H   15.9881307    0.8620239   -0.0853288
  H   17.0340039   -2.1276642    0.0854712
  H   18.4220817    0.6044527   -0.0865267
  H   19.4788043   -2.3813685    0.0850082
  H   20.8556063    0.3564130   -0.0877516
  H   21.9260308   -2.6244573    0.0844502
  H   23.2890535    0.1202044   -0.0888698
  H   24.3755936   -2.8547483    0.0839160
  H   25.7228536   -0.1022941   -0.0897663
  H   26.8271767   -3.0705994    0.0835159
  H   28.1574799   -0.3098678   -0.0903605
  H   29.2802594   -3.2711440    0.0833354
  H   30.5934075   -0.5021571   -0.0906170
  H   31.7341716   -3.4564570    0.0834226
  H   33.0310694   -0.6797663   -0.0905491
  H   34.1881793   -3.6276190    0.0837803
  H   35.4708089   -0.8442638   -0.0902140
  H   36.6415896   -3.7866520    0.0843667
  H   37.9128252   -0.9980515   -0.0896970
  H   39.0938659   -3.9363081    0.0851058
  H   40.3571309   -1.1440904   -0.0890877
  H   41.5448899   -4.0797310    0.0859066
  H   42.8041869   -1.2855364   -0.0884508
  H   44.0052904   -4.2195548    0.0866286
  H   45.2785403   -1.4345653   -0.0873012
  H   46.1289622   -3.0965296    0.0113684

  