%chk=./chk/20.chk
# B3LYP/6-31G(d,p) OPT FREQ

20poly

0 1
  C  -16.0219631    3.4813776    1.4522234
  C  -14.9186160    3.8248739    0.7834538
  C  -13.5951410    3.2847079    1.1605394
  C  -12.4943265    3.6346002    0.4721013
  C  -11.1155053    3.1512589    0.7524313
  C  -10.7817968    2.3041095    1.7490655
  C   -9.4035388    1.8097967    2.0175876
  C   -8.3121173    2.1342119    1.3020307
  C   -6.9892433    1.5643778    1.6382115
  C   -5.9103497    1.8626298    0.9021393
  C   -4.5883075    1.2735649    1.2020628
  C   -3.5319566    1.5470625    0.4252159
  C   -2.2093761    0.9375059    0.6781584
  C   -1.1833282    1.1839889   -0.1469292
  C    0.1393979    0.5548634    0.0517293
  C    1.1282923    0.7765579   -0.8245766
  C    2.4519255    0.1316946   -0.6854454
  C    3.3965994    0.3409582   -1.6190320
  C    4.7526760   -0.2652143   -1.6327600
  C    5.2453860   -1.0954131   -0.6891303
  C    6.6007607   -1.7173128   -0.7321980
  C    7.4831237   -1.5595230   -1.7419921
  C    8.8303056   -2.1835308   -1.8179085
  C    9.3827634   -2.9755660   -0.8745050
  C   10.7351552   -3.5968111   -0.9777795
  C   11.5545320   -3.4769917   -2.0442362
  C   12.9027909   -4.0895388   -2.1632245
  C   13.5157866   -4.8278894   -1.2218044
  C   14.8681236   -5.3695360   -1.4775542
  C   15.5261788   -6.0860216   -0.5567156
  C   16.8814232   -6.6024080   -0.8429613
  C   17.5737574   -7.2969727    0.0691457
  C   18.9321327   -7.7917390   -0.2393758
  C   19.6512153   -8.4662308    0.6670607
  C   21.0119483   -8.9443764    0.3433155
  C   21.7493586   -9.6032591    1.2465518
  C   23.1115645  -10.0707423    0.9138657
  C   23.8592562  -10.7198708    1.8157477
  C   25.2215633  -11.1819564    1.4786922
  C   25.9740070  -11.8252267    2.3742137
  H  -15.9792268    2.7954561    2.2930948
  H  -15.0052185    4.5133565   -0.0529919
  H  -13.5425108    2.6013424    1.9991479
  H  -12.5998047    4.3207989   -0.3642300
  H  -10.3567744    3.5291773    0.0805618
  H  -11.5415493    1.9274603    2.4208593
  H   -9.2929839    1.1260016    2.8550073
  H   -8.3744906    2.8068360    0.4557609
  H   -6.8975671    0.8834841    2.4812088
  H   -6.0080823    2.5366880    0.0539765
  H   -4.4808738    0.5975579    2.0470308
  H   -3.6506028    2.2150705   -0.4251498
  H   -2.0782346    0.2682646    1.5251010
  H   -1.3286493    1.8448784   -0.9987751
  H    0.2997898   -0.1071285    0.8992683
  H    0.9499746    1.4311881   -1.6750586
  H    2.6284212   -0.5189114    0.1629092
  H    3.1636405    0.9938355   -2.4564117
  H    5.3500479    0.0054792   -2.4916554
  H    4.6416622   -1.3555498    0.1710546
  H    6.8515728   -2.3417010    0.1154105
  H    7.2318204   -0.9466466   -2.5958587
  H    9.3730700   -1.9533897   -2.7237237
  H    8.8393693   -3.1966518    0.0350114
  H   11.0444131   -4.1817175   -0.1210024
  H   11.2506755   -2.9029972   -2.9078887
  H   13.4227558   -3.9070939   -3.1003548
  H   13.0441894   -5.0338937   -0.2681535
  H   15.3401927   -5.1728739   -2.4378983
  H   15.0676679   -6.2842259    0.4092256
  H   17.3255778   -6.4049020   -1.8162909
  H   17.1397222   -7.4938625    1.0466625
  H   19.3549632   -7.5960261   -1.2224556
  H   19.2358394   -8.6607045    1.6531812
  H   21.4196990   -8.7512902   -0.6465703
  H   21.3463244   -9.7950992    2.2383336
  H   23.5104668   -9.8801654   -0.0800692
  H   23.4634376  -10.9099820    2.8108064
  H   25.6261438  -10.9983578    0.4868210
  H   25.6062494  -12.0272423    3.3758712
  H   26.9723377  -12.1555510    2.1058617
  H  -16.9834513    3.8891050    1.1571876


