%chk=./chk/22.chk
# B3LYP/6-31G(d,p) OPT FREQ

22poly

0 1
  C  -20.2430825    4.5334670   -0.0220105
  C  -19.1233017    4.9604471   -0.6210017
  C  -17.7414551    4.5569177   -0.2476471
  C  -17.4354044    3.7056557    0.7538007
  C  -16.0552038    3.2937633    1.1276722
  C  -14.9299176    3.7112914    0.5205295
  C  -13.6057172    3.2241377    0.9670041
  C  -12.4843406    3.6260044    0.3425064
  C  -11.1049537    3.1867349    0.6846894
  C  -10.7894672    2.3413689    1.6886917
  C   -9.4104959    1.8793437    2.0072617
  C   -8.3029331    2.2262334    1.3278000
  C   -6.9815847    1.6755905    1.6998755
  C   -5.8902544    1.9821010    0.9857450
  C   -4.5702900    1.4014210    1.3099281
  C   -3.5057351    1.6705816    0.5427397
  C   -2.1864943    1.0600103    0.8100237
  C   -1.1572274    1.2915388   -0.0154492
  C    0.1603186    0.6535832    0.1891860
  C    1.1467921    0.8518758   -0.6954521
  C    2.4630941    0.1920016   -0.5574746
  C    3.3994222    0.3714526   -1.5055220
  C    4.7451739   -0.2564808   -1.5268705
  C    5.2395925   -1.0758181   -0.5746751
  C    6.5834680   -1.7218668   -0.6286615
  C    7.4452325   -1.6071107   -1.6617612
  C    8.7794813   -2.2558835   -1.7514022
  C    9.3447986   -3.0256339   -0.7972553
  C   10.6849350   -3.6707054   -0.9165729
  C   11.4709610   -3.6060245   -2.0125102
  C   12.8073967   -4.2396734   -2.1493346
  C   13.4468488   -4.9396635   -1.1963784
  C   14.7852849   -5.5041220   -1.4749268
  C   15.4761133   -6.1761524   -0.5446698
  C   16.8181851   -6.7113184   -0.8574171
  C   17.5492226   -7.3546012    0.0620189
  C   18.8950390   -7.8642375   -0.2760773
  C   19.6575027   -8.4812229    0.6358007
  C   21.0061172   -8.9710434    0.2802184
  C   21.7901293   -9.5676137    1.1874509
  C   23.1404855  -10.0446254    0.8215190
  C   23.9365922  -10.6284976    1.7265262
  C   25.2871465  -11.0991038    1.3555823
  C   26.0883771  -11.6763406    2.2537571
  H  -20.2401558    3.8394006    0.8080864
  H  -19.2268529    5.6566808   -1.4479616
  H  -16.9578536    4.9993852   -0.8479372
  H  -18.2226440    3.2651805    1.3514735
  H  -15.9719392    2.5954467    1.9562541
  H  -14.9646109    4.4040554   -0.3111163
  H  -13.5685697    2.5302123    1.7976891
  H  -12.5719233    4.3173543   -0.4915621
  H  -10.3296477    3.5929089    0.0492840
  H  -11.5658845    1.9374302    2.3247333
  H   -9.3143020    1.1943909    2.8454615
  H   -8.3514341    2.8971085    0.4793390
  H   -6.9021239    0.9963669    2.5453918
  H   -5.9772677    2.6511380    0.1324503
  H   -4.4723476    0.7301323    2.1597294
  H   -3.6165505    2.3309880   -0.3145995
  H   -2.0620051    0.3980887    1.6636286
  H   -1.2977011    1.9428027   -0.8754944
  H    0.3171307    0.0009552    1.0445562
  H    0.9701878    1.4954646   -1.5546909
  H    2.6396651   -0.4475776    0.2992457
  H    3.1655991    1.0127017   -2.3516118
  H    5.3327875   -0.0124013   -2.4002917
  H    4.6461293   -1.3076685    0.3006974
  H    6.8426198   -2.3282092    0.2295628
  H    7.1845889   -1.0146844   -2.5270935
  H    9.3015208   -2.0631956   -2.6778290
  H    8.8230777   -3.2068046    0.1336328
  H   11.0140034   -4.2252924   -0.0470126
  H   11.1463910   -3.0647653   -2.8895624
  H   13.2958664   -4.1058173   -3.1113100
  H   13.0082938   -5.0951047   -0.2176248
  H   15.2212616   -5.3590931   -2.4612075
  H   15.0558248   -6.3213937    0.4476874
  H   17.2217448   -6.5680160   -1.8575762
  H   17.1576200   -7.4959295    1.0666695
  H   19.2735954   -7.7252230   -1.2864994
  H   19.2877805   -8.6177983    1.6494132
  H   21.3669522   -8.8367524   -0.7372371
  H   21.4348882   -9.6997854    2.2068525
  H   23.4908856   -9.9142835   -0.2000510
  H   23.5897182  -10.7578653    2.7492082
  H   25.6427713  -10.9760972    0.3359633
  H   25.7703430  -11.8165820    3.2826112
  H   27.0770455  -12.0140873    1.9600536
  H  -21.2053615    4.8905219   -0.3747914


  