%chk=./chk/25.chk
# B3LYP/6-31G(d,p) OPT FREQ

25poly

0 1
  C  -27.5888317    3.9242102   -0.2490319
  C  -26.4775575    4.4833816   -0.7335294
  C  -25.1429150    4.0624080   -0.2606732
  C  -24.0294659    4.6238742   -0.7501469
  C  -22.6954112    4.1999989   -0.2767238
  C  -21.5792086    4.7549994   -0.7681028
  C  -20.2460266    4.3249044   -0.2946220
  C  -19.1275293    4.8758239   -0.7991843
  C  -17.7393175    4.5138054   -0.4026903
  C  -17.4221156    3.5929673    0.5315549
  C  -16.0365878    3.2189464    0.9223019
  C  -14.9125646    3.7341914    0.3930478
  C  -13.5854091    3.2657287    0.8503103
  C  -12.4579081    3.7513414    0.3008586
  C  -11.0773400    3.3298504    0.6632319
  C  -10.7734288    2.4266483    1.6194595
  C   -9.3959223    1.9771980    1.9578874
  C   -8.2736697    2.3866437    1.3409765
  C   -6.9573758    1.8342653    1.7277012
  C   -5.8455428    2.1891012    1.0705619
  C   -4.5345869    1.5970061    1.4101354
  C   -3.4459036    1.8983896    0.6910391
  C   -2.1397355    1.2661106    0.9715698
  C   -1.0869865    1.5115607    0.1812068
  C    0.2130445    0.8411590    0.3937777
  C    1.2171023    1.0337592   -0.4714686
  C    2.5109131    0.3309346   -0.3334196
  C    3.4541741    0.4853378   -1.2783912
  C    4.7733577   -0.1955301   -1.3073909
  C    5.2449442   -1.0276515   -0.3543736
  C    6.5586370   -1.7322282   -0.4234705
  C    7.3896812   -1.6902354   -1.4864660
  C    8.6898923   -2.4001941   -1.5981133
  C    9.2678705   -3.1422676   -0.6296830
  C   10.5753993   -3.8467117   -0.7765231
  C   11.2898463   -3.8987079   -1.9209651
  C   12.5951524   -4.5856153   -2.0900349
  C   13.2894635   -5.2063824   -1.1208665
  C   14.5934305   -5.8265852   -1.4408609
  C   15.3557455   -6.3996926   -0.5003297
  C   16.6658987   -6.9807741   -0.8624703
  C   17.4832066   -7.5039575    0.0604619
  C   18.7991711   -8.0498791   -0.3337785
  C   19.6589732   -8.5277225    0.5749970
  C   20.9791423   -9.0459321    0.1582003
  C   21.8677080   -9.4888288    1.0570180
  C   23.1904335   -9.9889423    0.6266746
  C   24.0949835  -10.4103113    1.5199406
  C   25.4182214  -10.9015608    1.0831426
  C   26.3286322  -11.3137626    1.9680758
  H  -27.5426958    3.1446776    0.5058372
  H  -26.5651397    5.2602524   -1.4883374
  H  -25.0685359    3.2841221    0.4955945
  H  -24.1037562    5.4014310   -1.5070498
  H  -22.6236761    3.4231938    0.4812701
  H  -21.6510269    5.5302964   -1.5275632
  H  -20.2010998    3.5531947    0.4636524
  H  -19.2236353    5.6440272   -1.5620280
  H  -16.9588599    5.0488324   -0.9272292
  H  -18.2017332    3.0592266    1.0579318
  H  -15.9478739    2.4586224    1.6939046
  H  -14.9506119    4.4891735   -0.3826853
  H  -13.5517071    2.5117581    1.6268273
  H  -12.5404560    4.4992846   -0.4834178
  H  -10.2913348    3.7989210    0.0867328
  H  -11.5589721    1.9603615    2.1985502
  H   -9.3137124    1.2428383    2.7549123
  H   -8.3067072    3.1063088    0.5322865
  H   -6.8985217    1.1090573    2.5361398
  H   -5.9087256    2.9015160    0.2508805
  H   -4.4638294    0.8851691    2.2293246
  H   -3.5276573    2.5959177   -0.1398545
  H   -2.0459483    0.5705147    1.8022287
  H   -1.1967405    2.1924657   -0.6602764
  H    0.3395346    0.1628614    1.2342411
  H    1.0689813    1.6988247   -1.3198086
  H    2.6619838   -0.3254834    0.5156333
  H    3.2436434    1.1398857   -2.1205304
  H    5.3607912    0.0194927   -2.1883781
  H    4.6550777   -1.2246444    0.5319298
  H    6.8180612   -2.3241879    0.4449707
  H    7.1243065   -1.1197448   -2.3649907
  H    9.1768834   -2.2754268   -2.5545989
  H    8.7854406   -3.2478799    0.3336404
  H   10.9412360   -4.3452370    0.1123551
  H   10.9244694   -3.4209072   -2.8185303
  H   13.0141619   -4.5582289   -3.0928256
  H   12.9244848   -5.2493815   -0.1012484
  H   14.9482231   -5.7991084   -2.4690922
  H   15.0217585   -6.4226056    0.5341984
  H   16.9774837   -6.9649710   -1.9047724
  H   17.1878178   -7.5130101    1.1069538
  H   19.0773500   -8.0476436   -1.3855339
  H   19.3926571   -8.5234034    1.6293587
  H   21.2338587   -9.0559564   -0.8993706
  H   21.6204190   -9.4737547    2.1159629
  H   23.4314039  -10.0079540   -0.4339551
  H   23.8584271  -10.3886721    2.5812795
  H   25.6635328  -10.9294524    0.0247133
  H   26.1225619  -11.3000130    3.0342185
  H   27.2949581  -11.6696034    1.6254524
  H  -28.5600356    4.2473089   -0.6095994


  