%chk=./chk/27.chk
# B3LYP/6-31G(d,p) OPT FREQ

27poly

0 1
  C  -32.4103736    3.4834898   -0.0046455
  C  -31.3296045    4.0893350   -0.5018957
  C  -29.9695905    3.6513028   -0.1273801
  C  -28.8865972    4.2617096   -0.6265653
  C  -27.5277560    3.8228830   -0.2472666
  C  -26.4412232    4.4323999   -0.7399639
  C  -25.0862150    3.9909117   -0.3504996
  C  -23.9934963    4.5982217   -0.8320551
  C  -22.6445591    4.1516744   -0.4276063
  C  -21.5428527    4.7542613   -0.8950186
  C  -20.2004310    4.3005144   -0.4732316
  C  -19.0901271    4.9035299   -0.9345639
  C  -17.6975086    4.5267033   -0.5663747
  C  -17.3725693    3.5320272    0.2858614
  C  -15.9863917    3.1494762    0.6619231
  C  -14.8645291    3.7341029    0.2057036
  C  -13.5392111    3.2541287    0.6551546
  C  -12.4073827    3.8139138    0.1920277
  C  -11.0300709    3.3927715    0.5682142
  C  -10.7398879    2.4150002    1.4525649
  C   -9.3668978    1.9704087    1.8109511
  C   -8.2304328    2.4620824    1.2876253
  C   -6.9204278    1.9061052    1.6882625
  C   -5.7869110    2.3388450    1.1213510
  C   -4.4842034    1.7379614    1.4745900
  C   -3.3672377    2.1052753    0.8341641
  C   -2.0728523    1.4546223    1.1240788
  C   -0.9894245    1.7463770    0.3935791
  C    0.2927958    1.0444549    0.6083750
  C    1.3234781    1.2582742   -0.2193365
  C    2.5908784    0.5090010   -0.0870547
  C    3.5505441    0.6578613   -1.0158597
  C    4.8366265   -0.0822829   -1.0556713
  C    5.2694273   -0.9481494   -0.1144646
  C    6.5427099   -1.7203602   -0.2016142
  C    7.3421662   -1.7432104   -1.2888044
  C    8.5967415   -2.5257900   -1.4237662
  C    9.1784228   -3.2557766   -0.4487663
  C   10.4413840   -4.0310453   -0.6220469
  C   11.0735941   -4.2012127   -1.8027885
  C   12.3382783   -4.9520386   -2.0010204
  C   13.0889011   -5.4972389   -1.0288886
  C   14.3513396   -6.1816264   -1.3809566
  C   15.1863538   -6.6513081   -0.4453180
  C   16.4611950   -7.2844150   -0.8430156
  C   17.3650021   -7.6741880    0.0646948
  C   18.6507993   -8.2597599   -0.3690377
  C   19.6062683   -8.5772610    0.5136490
  C   20.8997931   -9.1247468    0.0538444
  C   21.8890306   -9.3869842    0.9174548
  C   23.1871465   -9.9093615    0.4416476
  C   24.1945906  -10.1379655    1.2938600
  C   25.4941069  -10.6481975    0.8104526
  C   26.5074777  -10.8641072    1.6520273
  H  -32.3197452    2.6520793    0.6883199
  H  -31.4613912    4.9179957   -1.1924243
  H  -29.8510955    2.8209798    0.5652640
  H  -29.0045010    5.0924393   -1.3186002
  H  -27.4127488    2.9923638    0.4457174
  H  -26.5532319    5.2638996   -1.4319926
  H  -24.9791599    3.1596250    0.3428699
  H  -24.0959324    5.4308039   -1.5242174
  H  -22.5497417    3.3195115    0.2664937
  H  -21.6337062    5.5874848   -1.5880232
  H  -20.1431266    3.4706926    0.2196313
  H  -19.1972902    5.7326182   -1.6289906
  H  -16.9212872    5.1175415   -1.0347660
  H  -18.1463477    2.9410441    0.7562695
  H  -15.8952650    2.3245850    1.3638044
  H  -14.9037393    4.5575254   -0.4970538
  H  -13.5107380    2.4332602    1.3604398
  H  -12.4831083    4.6298278   -0.5218572
  H  -10.2344893    3.9301017    0.0692672
  H  -11.5338780    1.8798071    1.9552349
  H   -9.2995127    1.1685690    2.5415574
  H   -8.2466566    3.2518792    0.5466578
  H   -6.8825738    1.1126584    2.4312223
  H   -5.8253269    3.1186631    0.3640633
  H   -4.4419941    0.9613148    2.2347470
  H   -3.4172940    2.8647338    0.0569846
  H   -2.0137881    0.7009459    1.9058276
  H   -1.0628456    2.4807869   -0.4056327
  H    0.3813327    0.3174789    1.4121986
  H    1.2129583    1.9665365   -1.0377847
  H    2.7044556   -0.1848378    0.7376485
  H    3.3749787    1.3449373   -1.8398086
  H    5.4326257    0.1161768   -1.9350285
  H    4.6767153   -1.1229000    0.7746570
  H    6.7932822   -2.3130657    0.6690126
  H    7.0782850   -1.1801211   -2.1726293
  H    9.0487988   -2.4639489   -2.4033989
  H    8.7380364   -3.2902205    0.5397258
  H   10.8435783   -4.4809419    0.2770463
  H   10.6650481   -3.7798453   -2.7100406
  H   12.6803276   -5.0342258   -3.0297291
  H   12.8053696   -5.4228748    0.0146534
  H   14.6194772   -6.2793118   -2.4309890
  H   14.9430075   -6.5412721    0.6087795
  H   16.6786110   -7.4090477   -1.9018000
  H   17.1666511   -7.5351795    1.1248550
  H   18.8298783   -8.4120173   -1.4312986
  H   19.4406729   -8.4120725    1.5757340
  H   21.0528185   -9.3003975   -1.0087992
  H   21.7441200   -9.2018765    1.9793256
  H   23.3253634  -10.1012145   -0.6201767
  H   24.0609922   -9.9410826    2.3551426
  H   25.6368520  -10.8512109   -0.2476732
  H   26.4052853  -10.6713060    2.7158598
  H   27.4544019  -11.2372805    1.2754393
  H  -33.4011559    3.8204698   -0.2916672


  