%chk=./chk/28.chk
# B3LYP/6-31G(d,p) OPT FREQ

28poly

0 1
  C  -34.7755667    3.2423639    0.2848981
  C  -33.7125382    3.8784458   -0.2128124
  C  -32.3404471    3.4242244    0.0916322
  C  -31.2753199    4.0645828   -0.4084310
  C  -29.9042763    3.6092729   -0.0993018
  C  -28.8354642    4.2479786   -0.5937337
  C  -27.4679507    3.7898079   -0.2739927
  C  -26.3925686    4.4261437   -0.7570294
  C  -25.0307777    3.9633932   -0.4202920
  C  -23.9459394    4.5965045   -0.8859754
  C  -22.5922662    4.1272778   -0.5263535
  C  -21.4953580    4.7557882   -0.9700582
  C  -20.1503760    4.2790591   -0.5841170
  C  -19.0423866    4.9104220   -1.0116103
  C  -17.6489905    4.5165432   -0.6649463
  C  -17.3224199    3.4722288    0.1249739
  C  -15.9367438    3.0773362    0.4880629
  C  -14.8163233    3.7013853    0.0838555
  C  -13.4923598    3.2097564    0.5232974
  C  -12.3608256    3.8147413    0.1204005
  C  -10.9854282    3.3922178    0.5011857
  C  -10.6991222    2.3652679    1.3290183
  C   -9.3280711    1.9244944    1.6970513
  C   -8.1881203    2.4726366    1.2420493
  C   -6.8798536    1.9176940    1.6477016
  C   -5.7384145    2.4075731    1.1472580
  C   -4.4377534    1.8063892    1.5049951
  C   -3.3072069    2.2252824    0.9229551
  C   -2.0169908    1.5684419    1.2142852
  C   -0.9160001    1.8992733    0.5283772
  C    0.3571108    1.1813513    0.7399812
  C    1.4049901    1.4162625   -0.0595699
  C    2.6554146    0.6389350    0.0652605
  C    3.6271300    0.7888733   -0.8504465
  C    4.8897914    0.0103266   -0.8991839
  C    5.2928216   -0.8812875    0.0310008
  C    6.5357413   -1.6984424   -0.0688856
  C    7.3144942   -1.7583883   -1.1693182
  C    8.5346866   -2.5901522   -1.3188475
  C    9.1131291   -3.3204266   -0.3425074
  C   10.3422763   -4.1436986   -0.5305365
  C   10.9211226   -4.3823490   -1.7266454
  C   12.1563109   -5.1763653   -1.9398795
  C   12.9386926   -5.6822074   -0.9719435
  C   14.1737516   -6.4074257   -1.3371241
  C   15.0497299   -6.8169395   -0.4111806
  C   16.3041674   -7.4810543   -0.8213361
  C   17.2559346   -7.7878812    0.0686150
  C   18.5270358   -8.3943070   -0.3782657
  C   19.5338862   -8.6084319    0.4777539
  C   20.8165496   -9.1682191    0.0035715
  C   21.8579135   -9.3119139    0.8329139
  C   23.1473329   -9.8408307    0.3416628
  C   24.2065905   -9.9420690    1.1547223
  C   25.4983731  -10.4561424    0.6553502
  C   26.5629776  -10.5421088    1.4559618
  H  -34.6610850    2.3736778    0.9267122
  H  -33.8679944    4.7440763   -0.8510743
  H  -32.1981055    2.5570183    0.7326491
  H  -31.4169968    4.9320906   -1.0489361
  H  -29.7653527    2.7423415    0.5428137
  H  -28.9712908    5.1158888   -1.2348781
  H  -27.3369720    2.9224680    0.3692714
  H  -26.5187106    5.2951336   -1.3986241
  H  -24.9118789    3.0949530    0.2238784
  H  -24.0583525    5.4671354   -1.5278314
  H  -22.4897713    3.2573144    0.1185866
  H  -21.5921578    5.6280064   -1.6122956
  H  -20.0896286    3.4105868    0.0591217
  H  -19.1524471    5.7798167   -1.6542577
  H  -16.8739662    5.1398234   -1.0915513
  H  -18.0944768    2.8482010    0.5535628
  H  -15.8448599    2.2108466    1.1377741
  H  -14.8560946    4.5684702   -0.5641617
  H  -13.4648099    2.3461165    1.1753857
  H  -12.4352842    4.6744962   -0.5400621
  H  -10.1879329    3.9741053    0.0582648
  H  -11.4947501    1.7850563    1.7760462
  H   -9.2643885    1.0780486    2.3757967
  H   -8.1994823    3.3093622    0.5545089
  H   -6.8484610    1.0783974    2.3387511
  H   -5.7679550    3.2334167    0.4401836
  H   -4.4071056    0.9852093    2.2174029
  H   -3.3428462    3.0279584    0.1898300
  H   -1.9754458    0.7739310    1.9557033
  H   -0.9695408    2.6717266   -0.2356118
  H    0.4229958    0.4194531    1.5130801
  H    1.3182628    2.1556829   -0.8527973
  H    2.7429321   -0.0822471    0.8692656
  H    3.4762188    1.5000111   -1.6586044
  H    5.4933076    0.2004481   -1.7755426
  H    4.6970019   -1.0451056    0.9200919
  H    6.7767466   -2.2967768    0.8005746
  H    7.0544974   -1.1939781   -2.0536161
  H    8.9656300   -2.5641787   -2.3097435
  H    8.6993257   -3.3146817    0.6580480
  H   10.7644237   -4.5702693    0.3707035
  H   10.4874909   -3.9882143   -2.6346640
  H   12.4508859   -5.3216679   -2.9762818
  H   12.7052268   -5.5395550    0.0769019
  H   14.3910116   -6.5787126   -2.3894986
  H   14.8585402   -6.6272529    0.6424329
  H   16.4693751   -7.6903924   -1.8761955
  H   17.1101732   -7.5583057    1.1216262
  H   18.6542324   -8.6414764   -1.4301127
  H   19.4197918   -8.3435603    1.5264256
  H   20.9190644   -9.4466946   -1.0430493
  H   21.7628512   -9.0207884    1.8765435
  H   23.2364576  -10.1404756   -0.7002738
  H   24.1215869   -9.6357039    2.1948838
  H   25.5930853  -10.7684319   -0.3813214
  H   26.5092889  -10.2372495    2.4969230
  H   27.5034088  -10.9201804    1.0682510
  H  -35.7756665    3.5918592    0.0499175


  