%chk=./chk/29.chk
# B3LYP/6-31G(d,p) OPT FREQ

29poly

0 1
  C  -37.1154800    3.1361078    0.5395400
  C  -36.0516635    3.8069096    0.0918435
  C  -34.6809133    3.3136226    0.3353799
  C  -33.6157119    3.9872995   -0.1180723
  C  -32.2454998    3.4921179    0.1264531
  C  -31.1783467    4.1603478   -0.3303807
  C  -29.8104913    3.6611320   -0.0820477
  C  -28.7394505    4.3219726   -0.5402758
  C  -27.3753214    3.8174570   -0.2832942
  C  -26.2979830    4.4707112   -0.7373558
  C  -24.9391596    3.9605896   -0.4646666
  C  -23.8529543    4.6077725   -0.9058425
  C  -22.5012726    4.0925336   -0.6089626
  C  -21.4036882    4.7361756   -1.0270889
  C  -20.0595744    4.2175989   -0.6983762
  C  -18.9516505    4.8702220   -1.0911450
  C  -17.5586552    4.4450624   -0.7852687
  C  -17.2318521    3.3402966   -0.0823174
  C  -15.8460068    2.9234262    0.2531695
  C  -14.7290192    3.5892437   -0.0874939
  C  -13.4046313    3.0830150    0.3308790
  C  -12.2793440    3.7427919    0.0054616
  C  -10.9042734    3.3236347    0.3878927
  C  -10.6131888    2.2389774    1.1365317
  C   -9.2419536    1.8116055    1.5165786
  C   -8.1076411    2.4372585    1.1594157
  C   -6.7971896    1.8956128    1.5721393
  C   -5.6561608    2.4675337    1.1688979
  C   -4.3526058    1.8793120    1.5330247
  C   -3.2128174    2.3741939    1.0366334
  C   -1.9222747    1.7210198    1.3289752
  C   -0.8032637    2.1097505    0.7072295
  C    0.4620945    1.3786374    0.9119617
  C    1.5300991    1.6437370    0.1508812
  C    2.7586683    0.8323384    0.2623394
  C    3.7445423    0.9817254   -0.6370986
  C    4.9727162    0.1511857   -0.7007772
  C    5.3329677   -0.7740627    0.2141110
  C    6.5288602   -1.6534121    0.0948954
  C    7.2763931   -1.7616689   -1.0226280
  C    8.4433483   -2.6618950   -1.1921785
  C    9.0114161   -3.4004109   -0.2163540
  C   10.1886511   -4.2898623   -0.4224497
  C   10.6968315   -4.6087274   -1.6316804
  C   11.8889983   -5.4612197   -1.8615160
  C   12.7070220   -5.9277965   -0.9038375
  C   13.9064707   -6.7038878   -1.2793819
  C   14.8286663   -7.0433698   -0.3706944
  C   16.0612946   -7.7414750   -0.7873526
  C   17.0656481   -7.9443735    0.0736854
  C   18.3257263   -8.5675048   -0.3788837
  C   19.3856155   -8.6478984    0.4348421
  C   20.6641055   -9.2100711   -0.0457899
  C   21.7554632   -9.1987075    0.7298369
  C   23.0443629   -9.7205558    0.2311341
  C   24.1504425   -9.6548583    0.9832326
  C   25.4433044  -10.1574879    0.4759075
  C   26.5529963  -10.0731682    1.2129820
  H  -37.0027090    2.2094885    1.0947693
  H  -36.2054079    4.7302285   -0.4602336
  H  -34.5397184    2.3891591    0.8909566
  H  -33.7566743    4.9112434   -0.6743805
  H  -32.1059883    2.5699343    0.6862361
  H  -31.3157511    5.0821092   -0.8911314
  H  -29.6758260    2.7416884    0.4834603
  H  -28.8707614    5.2413916   -1.1062704
  H  -27.2484985    2.9005385    0.2881681
  H  -26.4200422    5.3884252   -1.3081220
  H  -24.8235348    3.0452145    0.1117022
  H  -23.9623987    5.5250488   -1.4798073
  H  -22.4007104    3.1772436   -0.0296108
  H  -21.4989674    5.6543493   -1.6021426
  H  -19.9993874    3.3042509   -0.1203336
  H  -19.0613277    5.7868791   -1.6645934
  H  -16.7845522    5.1006835   -1.1615717
  H  -18.0032602    2.6834690    0.2952233
  H  -15.7515238    2.0082401    0.8320630
  H  -14.7717992    4.5075287   -0.6603836
  H  -13.3723467    2.1693939    0.9108452
  H  -12.3591603    4.6543183   -0.5809834
  H  -10.1119194    3.9624944    0.0212888
  H  -11.4038333    1.6011994    1.5070962
  H   -9.1725921    0.9112363    2.1216582
  H   -8.1233814    3.3318428    0.5490115
  H   -6.7622908    0.9997054    2.1882676
  H   -5.6859899    3.3509091    0.5349403
  H   -4.3258335    1.0021768    2.1759764
  H   -3.2396730    3.2315651    0.3676866
  H   -1.8953537    0.8746255    2.0118533
  H   -0.8374108    2.9303894   -0.0061043
  H    0.5025987    0.5724287    1.6411128
  H    1.4717380    2.4220339   -0.6070806
  H    2.8118894    0.0770710    1.0375232
  H    3.6262541    1.7226166   -1.4237756
  H    5.5849165    0.3272002   -1.5743037
  H    4.7346759   -0.9220036    1.1039856
  H    6.7542245   -2.2616402    0.9617470
  H    7.0238688   -1.1913447   -1.9057518
  H    8.8459043   -2.6798806   -2.1953357
  H    8.6336574   -3.3468231    0.7968652
  H   10.6326040   -4.6953984    0.4779283
  H   10.2344757   -4.2386969   -2.5360986
  H   12.1246693   -5.6785059   -2.9002861
  H   12.5353761   -5.7064763    0.1431393
  H   14.0646860   -6.9602126   -2.3248722
  H   14.6963956   -6.7597553    0.6708825
  H   16.1708401   -8.0507466   -1.8246322
  H   16.9738860   -7.6064956    1.1034278
  H   18.4028135   -8.9280713   -1.4023437
  H   19.3190140   -8.2631602    1.4500107
  H   20.7227030   -9.6119102   -1.0549287
  H   21.7018402   -8.7801352    1.7323269
  H   23.0943913  -10.1494586   -0.7672333
  H   24.1029884   -9.2171694    1.9778655
  H   25.5015843  -10.6004945   -0.5147485
  H   26.5358246   -9.6337335    2.2060243
  H   27.4937949  -10.4452521    0.8205883
  H  -38.1144834    3.5151367    0.3501159

