%chk=./chk/4.chk
# B3LYP/6-31G(d,p) OPT FREQ

4poly

0 1
  C   18.9157239   -7.7758108   -0.2602791
  C   19.5187647   -8.5683012    0.6288294
  C   20.9388543   -8.9456077    0.4758388
  C   21.5398188   -9.7414802    1.3701644
  C   22.9602944  -10.1194513    1.2174997
  C   23.5610395  -10.9159378    2.1114267
  C   24.9809888  -11.2936697    1.9581899
  C   25.5835242  -12.0875732    2.8463805
  H   19.4519058   -7.3863321   -1.1207123
  H   18.9480437   -8.9378433    1.4766106
  H   21.4999712   -8.5694617   -0.3766720
  H   20.9779238  -10.1172821    2.2223069
  H   23.5222728   -9.7434232    0.3655116
  H   22.9997609  -11.2925148    2.9636406
  H   25.5519756  -10.9234126    1.1109004
  H   25.0470221  -12.4779132    3.7062244
  H   26.6275417  -12.3532494    2.7154646
  H   17.8715771   -7.5105305   -0.1295884


  