%chk=./chk/5.chk
# B3LYP/6-31G(d,p) OPT FREQ

5poly

0 1
  C   16.9584357   -6.4642610   -0.9636987
  C   17.5534502   -7.2621624   -0.0740155
  C   18.9636455   -7.6707511   -0.2377917
  C   19.5561266   -8.4728371    0.6566640
  C   20.9664372   -8.8828500    0.4929747
  C   21.5578164   -9.6873613    1.3860717
  C   22.9676767  -10.0987048    1.2219006
  C   23.5579441  -10.9055668    2.1135322
  C   24.9670332  -11.3174376    1.9485783
  C   25.5586617  -12.1226518    2.8339325
  H   17.4941062   -6.0931770   -1.8325289
  H   16.9834727   -7.6128091    0.7822426
  H   19.5242481   -7.3131446   -1.0985635
  H   18.9945831   -8.8303324    1.5168593
  H   21.5282087   -8.5246356   -0.3667549
  H   20.9957808  -10.0460212    2.2454414
  H   23.5302101   -9.7394766    0.3630748
  H   22.9959398  -11.2656125    2.9723727
  H   25.5387714  -10.9637278    1.0947619
  H   25.0209594  -12.4973444    3.6999628
  H   26.5947677  -12.4136582    2.6943321
  H   15.9214382   -6.1759845   -0.8250252


  