%chk=./chk/6.chk
# B3LYP/6-31G(d,p) OPT FREQ

6poly

0 1
  C   15.0499023   -5.1298022   -1.6781351
  C   15.6388069   -5.9272562   -0.7840050
  C   17.0419245   -6.3579039   -0.9520647
  C   17.6275787   -7.1608319   -0.0538820
  C   19.0302903   -7.5943165   -0.2223528
  C   19.6132079   -8.4028134    0.6727074
  C   21.0145586   -8.8400756    0.5028716
  C   21.5941209   -9.6552571    1.3940558
  C   22.9941221  -10.0962877    1.2228813
  C   23.5709421  -10.9168239    2.1108472
  C   24.9696660  -11.3597457    1.9384204
  C   25.5471804  -12.1799205    2.8193595
  H   15.5855293   -4.7752040   -2.5538417
  H   15.0689785   -6.2612598    0.0789808
  H   17.6026154   -6.0166533   -1.8193844
  H   17.0656629   -7.5024163    0.8125098
  H   19.5928519   -7.2514915   -1.0878100
  H   19.0499049   -8.7467893    1.5372258
  H   21.5788100   -8.4947161   -0.3604741
  H   21.0291330  -10.0017559    2.2564670
  H   23.5600185   -9.7487512    0.3614672
  H   23.0052694  -11.2656136    2.9719197
  H   25.5451059  -11.0173552    1.0824875
  H   25.0052347  -12.5442698    3.6871603
  H   26.5757612  -12.4939818    2.6742141
  H   14.0179585   -4.8253848   -1.5362785


  