%chk=./chk/7.chk
# B3LYP/6-31G(d,p) OPT FREQ

7poly

0 1
  C   13.1133127   -3.8086124   -2.3843421
  C   13.6955048   -4.6116945   -1.4908486
  C   15.0931169   -5.0585086   -1.6623593
  C   15.6729474   -5.8657789   -0.7643127
  C   17.0705173   -6.3141101   -0.9364911
  C   17.6494959   -7.1244744   -0.0406244
  C   19.0462633   -7.5745681   -0.2146725
  C   19.6241528   -8.3888805    0.6782959
  C   21.0200393   -8.8409194    0.5021660
  C   21.5969467   -9.6588724    1.3924378
  C   22.9921351  -10.1124578    1.2146267
  C   23.5684059  -10.9327935    2.1030485
  C   24.9627806  -11.3867277    1.9238775
  C   25.5407846  -12.2051938    2.8060411
  H   13.6505644   -3.4612635   -3.2619832
  H   13.1244209   -4.9379334   -0.6257222
  H   15.6548021   -4.7251366   -2.5321291
  H   15.1104321   -6.1992323    0.1048758
  H   17.6329828   -5.9798556   -1.8053941
  H   17.0868741   -7.4595869    0.8278420
  H   19.6089696   -7.2385563   -1.0827411
  H   19.0612838   -8.7258271    1.5458926
  H   21.5829584   -8.5031792   -0.3650931
  H   21.0339010   -9.9973715    2.2593146
  H   23.5553237   -9.7735417    0.3479852
  H   23.0058640  -11.2726320    2.9697495
  H   25.5347029  -11.0536608    1.0619035
  H   25.0024720  -12.5601801    3.6799566
  H   26.5662074  -12.5271301    2.6558205
  H   12.0853962   -3.4920057   -2.2399909


