%chk=checkpoint.chk
%nprocshared=4
# B3LYP/6-31G(d,p) OPT FREQ 

8poly

0 1
  C   -2.3048638    1.1201016    0.0119040
  C   -1.0916825    1.6757423   -0.0300696
  C    0.1297355    0.8460591    0.0146208
  C    1.3455191    1.4069547   -0.0278252
  C    2.5666237    0.5759401    0.0168409
  C    3.7834461    1.1346692   -0.0257934
  C    5.0026221    0.3008057    0.0188447
  C    6.2209356    0.8561844   -0.0240924
  C    7.4376266    0.0186300    0.0204888
  C    8.6576272    0.5701820   -0.0228311
  C    9.8718041   -0.2710946    0.0216728
  C   11.0933129    0.2770181   -0.0220299
  C   12.3055101   -0.5671771    0.0223997
  C   13.5280048   -0.0214341   -0.0215886
  C   14.7383432   -0.8674249    0.0228135
  C   15.9590387   -0.3287237   -0.0209072
  H   -3.1898911    1.7471839   -0.0221181
  H   -2.4277485    0.0431437    0.0800484
  H   -1.0102030    2.7572567   -0.0982742
  H    0.0352060   -0.2353942    0.0829260
  H    1.4397142    2.4883907   -0.0961786
  H    2.4711536   -0.5053987    0.0852649
  H    3.8799698    2.2158748   -0.0943068
  H    4.9044245   -0.7802736    0.0874692
  H    6.3205036    1.9370985   -0.0928380
  H    7.3361558   -1.0621301    0.0893706
  H    8.7604803    1.6507719   -0.0918429
  H    9.7672411   -1.3515438    0.0908193
  H   11.1989720    1.3573233   -0.0912867
  H   12.1988405   -1.6474241    0.0917595
  H   13.6361922    1.0586287   -0.0910180
  H   14.6421539   -1.9477035    0.0922081
  H   16.0966749    0.7463219   -0.0903213
  H   16.8375042   -0.9720916    0.0127276


  