%chk=./chk/9.chk
# B3LYP/6-31G(d,p) OPT FREQ

9poly

0 1
  C    8.9087741   -2.1699316   -2.1450127
  C    9.4768891   -2.9747546   -1.2369236
  C   10.8663350   -3.5007677   -1.3043672
  C   11.7402088   -3.2318980   -2.2968011
  C   13.1309071   -3.7556862   -2.3698504
  C   13.7042332   -4.5650805   -1.4615843
  C   15.0981498   -5.0257207   -1.6393040
  C   15.6780031   -5.8338864   -0.7416304
  C   17.0704867   -6.2945735   -0.9222870
  C   17.6498997   -7.1050446   -0.0267699
  C   19.0416856   -7.5670257   -0.2093796
  C   19.6207382   -8.3800654    0.6840279
  C   21.0119035   -8.8432317    0.4996197
  C   21.5906599   -9.6584117    1.3912653
  C   22.9813796  -10.1224372    1.2055458
  C   23.5599555  -10.9389316    2.0960289
  C   24.9500068  -11.4029245    1.9091904
  C   25.5304699  -12.2171581    2.7936634
  H    9.4246544   -1.8228176   -3.0305737
  H    8.8790953   -3.2705643   -0.3799375
  H   11.1548508   -4.1392665   -0.4801703
  H   11.4477377   -2.5926609   -3.1194750
  H   13.7131910   -3.4482242   -3.2345605
  H   13.1645548   -4.8986911   -0.5838759
  H   15.6580937   -4.7022956   -2.5139222
  H   15.1196740   -6.1589538    0.1333577
  H   17.6289232   -5.9693000   -1.7971591
  H   17.0914967   -7.4310471    0.8478452
  H   19.5998972   -7.2405560   -1.0839523
  H   19.0625294   -8.7072012    1.5583443
  H   21.5699515   -8.5156922   -0.3746582
  H   21.0326168   -9.9864517    2.2653513
  H   23.5394469   -9.7942282    0.3315116
  H   23.0026103  -11.2679026    2.9702369
  H   25.5166911  -11.0808298    1.0396250
  H   24.9973959  -12.5612024    3.6751297
  H   26.5526581  -12.5465865    2.6377486
  H    7.8842928   -1.8423819   -1.9999087


  