%nproc=4
%Mem=2Gb
# TD=(NStates=1) B3LYP/6-31G(d,p)  

EMISPCT

0 1
6   0.37825810337089  1.35504817764285  0.05697664554197
6   1.40196138451803  0.38921710281921  -0.03664834968543
6   1.06091372738587  -1.00842351662352  0.00960197870008
6   -0.32205136366693  -1.40357123774288  0.04350797235029
6   -1.48081049018234  -0.35234499374356  -0.01341010906313
6   -1.02250655168470  1.04480616681283  -0.04079875709855
1   0.53011329764223  2.32887180960584  0.13980848743021
1   -2.02898851266570  1.79308344816404  0.03164760740264
1   -2.53169122217349  -0.91381835716787  -0.23009759156760
1   -0.52886431617399  -2.40279740234521  0.17867608469383
1   1.87269788095856  -1.80967476472000  -0.25429484801088
1   2.54422961923210  0.72621975485891  -0.12855194346647





