%nproc=4
%Mem=2Gb
# TD=(NStates=1) B3LYP/6-31G(d,p)  

EMISPCT

0 1
6   0.35821170046752  1.36335776641075  0.06962935985154
6   1.40859796884368  0.39981188219548  -0.03306525677403
6   0.99154109914491  -0.94710977382477  -0.08129067498097
6   -0.37885759235075  -1.38559129357942  0.09612870617737
6   -1.40045630505693  -0.38358684115429  -0.04389517635192
6   -0.99435603540233  0.93433270265613  0.02459216078624
1   0.71246158941775  2.40002595956783  -0.27653060951157
1   -1.53343086267445  1.85570711580859  -0.27104461932292
1   -2.45524407504884  -0.67775266272470  -0.19009718549808
1   -0.61410755293253  -2.60704097765400  0.10827003392241
1   1.71294648172679  -1.68967244531863  -0.10966258964307
1   2.35068099614713  0.94892987171439  0.30036634770726





