%nproc=4
%Mem=2Gb
# TD=(NStates=1) B3LYP/6-31G(d,p)  

EMISPCT

0 1
6   0.33724550953436  1.38427462313329  0.07271055429579
6   1.41957026552372  0.39697415544968  -0.05870939772174
6   1.06685105584364  -1.06098292247912  0.00411815991151
6   -0.31182185051115  -1.38926429447233  0.11216991228477
6   -1.43745219240883  -0.37974127857019  -0.04555710660182
6   -1.05938647378788  1.01828048620284  0.00148000120782
1   0.67150868988191  2.56449200119216  0.11473723600930
1   -1.84711487291007  1.76972655762525  -0.24107257982081
1   -2.48804684072747  -0.56349969884660  -0.33158810266402
1   -0.75237998251109  -2.34764512821387  -0.22648565405847
1   1.86294199741087  -1.70922401114884  -0.16436331049165
1   2.39202429652407  0.61197676677822  -0.32947060845087





