%nproc=4
%Mem=2Gb
# TD=(NStates=1) B3LYP/6-31G(d,p)  

EMISPCT

0 1
6   0.39398565178301  1.42862771534992  -0.09410857546889
6   1.37273802811480  0.40686345503041  -0.00045938694404
6   1.03569053818610  -0.96809870600215  0.04735856245399
6   -0.41620385623954  -1.39658800496035  -0.09497569168049
6   -1.40134546035430  -0.40801783774841  0.03685406143159
6   -0.95307467276161  0.93247970071577  0.04548493495848
1   0.50256844413246  2.56015171423926  0.18808762522227
1   -1.89487513210469  1.62492607777843  0.06308582473819
1   -2.51991523879985  -0.66280051734679  0.10357212967419
1   -0.59460321655704  -2.28832973074727  0.04940246144453
1   1.79472411947619  -1.79834933436929  0.20996132136766
1   2.36361555127008  0.57890635034589  0.20377660596125





