%nproc=4
%Mem=2Gb
# TD=(NStates=1) B3LYP/6-31G(d,p)  

EMISPCT

0 1
6   0.38977035185040  1.37231469476431  0.01146504841874
6   1.35404682760698  0.43662451656797  -0.03905648089518
6   0.99325406670302  -1.03277133581923  0.04381834481881
6   -0.31463822153764  -1.35257956876677  0.07182478737733
6   -1.42616486733985  -0.41784438879822  -0.09709425385135
6   -1.03206599713000  0.98466628497632  0.04534441836342
1   0.65918680137112  2.36567543477493  0.15258603225113
1   -1.62886941691973  1.86817788016611  0.18302072095288
1   -2.49907369834960  -0.56642963713805  -0.30268854801002
1   -0.53261432333412  -2.44991292760196  -0.02337404385633
1   1.90672756178801  -1.64459535597229  -0.04007539716601
1   2.50437157350168  0.58104564842837  -0.46560490867254





