%nproc=4
%Mem=2Gb
# TD=(NStates=1) B3LYP/6-31G(d,p)  

EMISPCT

0 1
6   0.27266550330138  1.35132475594539  -0.00417521110270
6   1.39845720358135  0.38299792394215  -0.02867174292170
6   1.02087670211143  -0.94040350515086  0.03778437541153
6   -0.39929108072359  -1.41624284908435  -0.00949752325039
6   -1.36564652538729  -0.34950138066597  -0.01491298331140
6   -0.96756333585540  0.98357950313177  0.03676358801471
1   0.62961736694912  2.33946817815121  0.04119730983939
1   -1.68412596863169  1.74598033883104  -0.01849344184339
1   -2.36927781347002  -0.65551326879742  -0.23538774055964
1   -0.51688792904972  -2.48396988255442  0.14206524479611
1   1.80243477039151  -1.69248946100047  -0.08664165083738
1   2.63103943991501  0.64479789061096  -0.07905392687585





