%nproc=4
%Mem=2Gb
# TD=(NStates=1) B3LYP/6-31G(d,p)  

EMISPCT

0 1
6   0.40155696201450  1.38585806543456  0.07961827444797
6   1.35762728745156  0.38529767135310  -0.08339419277666
6   1.02406450353634  -0.99394395572078  -0.02445360997139
6   -0.36673105126206  -1.35681233249135  0.06755579146431
6   -1.36833083617525  -0.40557439620590  -0.06601314011128
6   -1.05055366233908  0.98054322407368  0.05050069435173
1   0.55343156125498  2.53777898741937  0.22523981114208
1   -1.66685048374293  1.91261911787738  -0.46270612803127
1   -2.43686463722245  -0.73375065319822  -0.21140023409634
1   -0.59518620740086  -2.51522154964721  0.16560751720046
1   1.85156387753766  -1.86973012175352  0.19073540466372
1   2.30277842517368  0.72784024817060  -0.23294254207608





