%nproc=4
%Mem=2Gb
# TD=(NStates=1) B3LYP/6-31G(d,p)  

EMISPCT

0 1
6   0.40420416506870  1.46181966406304  -0.00736825521284
6   1.32552762983467  0.32809938524764  -0.04398157519317
6   1.00040672780117  -0.94205525372907  0.12230492263344
6   -0.35035365452077  -1.44007152046816  -0.09783368176835
6   -1.35672790090783  -0.43271747584364  -0.05212563513678
6   -1.01471394356249  1.02974082705855  0.09604497007262
1   0.57156814820680  2.52318755080782  -0.26931982683480
1   -1.77372839886949  1.86215201265077  0.08403731948911
1   -2.47774539058767  -0.81238024871258  0.02113419673548
1   -0.55509937074212  -2.52607934347490  0.07431146085723
1   1.63907782288551  -1.81052866467935  0.13623153516346
1   2.46254924638803  0.71545487426405  -0.27929553914106





