%nproc=4
%Mem=2Gb
# TD=(NStates=1) B3LYP/6-31G(d,p)  

EMISPCT

0 1
6   0.34026780437678  1.36718236031233  0.10157347089122
6   1.35278390945336  0.35965177756584  -0.01965999955662
6   1.06208820830035  -1.05260071293928  0.01258196973303
6   -0.28180601943860  -1.35053334964912  -0.06659353240662
6   -1.44324475820840  -0.39785774688240  0.00385092868296
6   -1.03143429225750  1.03114915637898  -0.07684326104210
1   0.59929106665383  2.38788365358517  0.04351761684183
1   -1.67941018122377  1.88634010790716  0.11614102194709
1   -2.47309840457394  -0.55993002659200  0.14289721755427
1   -0.65061434269769  -2.34547556215952  0.52436104259266
1   1.84588131127853  -1.64248619778132  0.11095119321817
1   2.37150725986815  0.77047655989300  -0.32164296827971





