%nproc=4
%Mem=2Gb
# TD=(NStates=1) B3LYP/6-31G(d,p)  

EMISPCT

0 1
6   0.35449283987679  1.46886030198077  0.09587186948405
6   1.40560698698334  0.33832523967742  -0.00786601253228
6   0.98114191462356  -0.98875913100974  -0.05672959877870
6   -0.37706895265683  -1.42024149029165  0.11303703573082
6   -1.30986171191737  -0.38658077440663  -0.00805837715743
6   -1.05547060750962  0.97291907052488  -0.08142079540501
1   0.55360540894653  2.62511219232855  0.34820829375891
1   -1.84553739133370  1.68057682243812  -0.34852699562511
1   -2.48359604176883  -0.55192674446757  -0.12945566458224
1   -0.68869786995102  -2.50805266040239  0.02621195613399
1   1.94210104539976  -1.57202730484005  -0.30411278374317
1   2.48409924858830  0.48936880044883  -0.34173513094219





