%nproc=4
%Mem=2Gb
# TD=(NStates=1) B3LYP/6-31G(d,p)  

EMISPCT

0 1
6   0.35859655952621  1.39821660992047  0.07772170110535
6   1.44284956974497  0.41328527751400  0.00329335057768
6   0.99779175024313  -0.95478064522309  -0.05137183799502
6   -0.41062024100800  -1.33372234119591  0.05214724636282
6   -1.36117018034452  -0.46983889708651  -0.00828578167151
6   -1.00801689473212  0.99092970536161  -0.03218191844850
1   0.58131947054565  2.47550080182438  0.07304070269772
1   -1.85640986032255  1.64238836899102  -0.27559792036988
1   -2.37926840016509  -0.70804562978248  -0.09016063598694
1   -0.62822201437183  -2.50090110558549  0.04661550835115
1   1.56330428214097  -2.00590129447661  0.03983662411465
1   2.46227532953428  0.56903289566787  -0.35848933119446





