%nproc=4
%Mem=2Gb
# TD=(NStates=1) B3LYP/6-31G(d,p)  

EMISPCT

0 1
6   0.38348249568477  1.40588419161580  -0.16149289208561
6   1.43344035570839  0.44709837739024  0.02412127623499
6   0.97099826868061  -1.00254476349423  0.11394708295445
6   -0.34693521979983  -1.38774285184145  -0.08589321733808
6   -1.44941170882317  -0.38407767020112  -0.08501216520110
6   -1.01420031278250  0.93355991162477  0.16519995912911
1   0.65237055575473  2.43593335632826  -0.03096312769304
1   -1.68151503461249  1.74820926503802  0.51661298976861
1   -2.49697213613789  -0.72290606278763  -0.17185269503408
1   -0.55592713626590  -2.53612214902802  0.13965411295414
1   1.73252321676070  -1.72618446762569  0.16661615140797
1   2.62121803134193  0.68425962878270  -0.22196869521829





