%nproc=4
%Mem=2Gb
# TD=(NStates=1) B3LYP/6-31G(d,p)  

EMISPCT

0 1
6   0.36339755708649  1.34641248937039  -0.04406056147845
6   1.36012874069558  0.35179730653812  0.01155044002244
6   1.01656576119663  -0.98728121324665  -0.00010417497061
6   -0.37017001481930  -1.35359955311434  0.02484509150843
6   -1.29380358322128  -0.40831855939894  -0.04200078905499
6   -1.03207679488911  1.03350942786384  0.02298317041510
1   0.40091601467638  2.50162784965466  -0.12545750634346
1   -1.90394781728390  1.82821456450750  0.20006674081055
1   -2.45345712441951  -0.77398587162733  0.21529585571800
1   -0.65916287643245  -2.39177178891378  -0.13296547304958
1   1.67871554101338  -1.79222779636233  -0.09761235175610
1   2.40535792411960  0.77849096887256  0.30674865658112





