%nproc=4
%Mem=2Gb
# TD=(NStates=1) B3LYP/6-31G(d,p)  

EMISPCT

0 1
6   0.36057696608491  1.37347322875390  -0.02772017901832
6   1.38114988751334  0.37918869627653  0.18238068358609
6   1.00757057653652  -0.98019629616734  -0.14268121123259
6   -0.37758569834899  -1.36034407301459  0.03813811024184
6   -1.36723294416744  -0.35506802042288  0.01569407807983
6   -1.00696478101429  0.93135976975553  -0.04351819806274
1   0.51936317268018  2.30470054952464  -0.37326675961753
1   -1.82368702817441  1.61056326236512  -0.05656667258318
1   -2.36269418142674  -0.58250351427387  0.16695255893412
1   -0.64104470570292  -2.33882362054825  0.32274320745119
1   1.82263781216599  -1.62658585629799  -0.56775924517170
1   2.52508304846107  0.75556723686154  0.20321136853429





