%nproc=4
%Mem=2Gb
# TD=(NStates=1) B3LYP/6-31G(d,p)  

EMISPCT

0 1
6   0.36609031146516  1.38789292001449  0.10633647143121
6   1.38000570914793  0.36694660171516  -0.00216088799464
6   1.06192825838254  -1.05925367336026  -0.02260718056758
6   -0.33785873945240  -1.38056790646506  0.00679375574650
6   -1.34183967715727  -0.37591533310614  0.01940751214325
6   -1.11564481306542  1.06124566397748  -0.07965410347880
1   0.54100875934101  2.45374304375299  -0.30965771214057
1   -1.87555051453211  1.77439277257288  0.01530539269759
1   -2.56424772037800  -0.61448570245190  0.06268926106809
1   -0.61144460234053  -2.43917308057230  0.02226298147550
1   1.97556115730983  -1.77420029290234  -0.05987655435078
1   2.36575825803978  0.58720485797545  -0.11498012157559





