%nproc=4
%Mem=2Gb
# TD=(NStates=1) B3LYP/6-31G(d,p)  

EMISPCT

0 1
6   0.29553473933351  1.36954593823124  0.01140481371687
6   1.39904575731319  0.34254740103023  0.01993011061190
6   1.03137445743576  -1.01826474201933  -0.01605438969905
6   -0.34929463762287  -1.34823948137225  0.01642900284391
6   -1.30046557001550  -0.38597707536181  0.00427719094250
6   -1.04311622734706  1.01449037279637  0.02383845338435
1   0.41912270856091  2.44527753707510  -0.19380512866773
1   -1.87270654647471  1.78557555061773  -0.07295320993351
1   -2.49505217528998  -0.41984418177089  -0.26958541296986
1   -0.74624767423349  -2.55271154871310  -0.10302996085856
1   1.76019883205497  -1.79752027928370  0.06894731194842
1   2.52740876059362  0.78549438073186  -0.24719508412521





