%nproc=4
%Mem=2Gb
# TD=(NStates=1) B3LYP/6-31G(d,p)  

EMISPCT

0 1
6   0.38767060872058  1.37620147167275  -0.01407332444349
6   1.40853902859731  0.41291206053497  -0.01178780751419
6   0.99764596452041  -0.96392526170299  -0.01520904912638
6   -0.39756210270077  -1.44523432476577  -0.00808602878243
6   -1.38814209272545  -0.41714651017302  -0.01937954371898
6   -1.01264804794469  1.00925667179339  0.01802310096076
1   0.57894627970170  2.46460170718023  -0.08835006447630
1   -1.73180813586659  1.92232071166975  0.33757913195522
1   -2.37745502880358  -0.76287465777288  -0.08580849004349
1   -0.69502048003317  -2.53148020546572  0.10007943677577
1   1.76600632097532  -1.68360642879316  0.33371586125926
1   2.51693445327633  0.91307488012064  0.09311304373400





