%nproc=4
%Mem=2Gb
# TD=(NStates=1) B3LYP/6-31G(d,p)  

EMISPCT

0 1
6   0.35800688805859  1.39208741432698  0.07816456029721
6   1.28723842670593  0.41610500433080  -0.08220620622172
6   0.98953303202461  -0.99036841665412  -0.03132687487688
6   -0.35171060731334  -1.39884680617864  0.09878698213516
6   -1.35537681714502  -0.38867394492422  -0.12533636082496
6   -0.97550366479024  0.99913876855128  0.04272278904373
1   0.84910609998019  2.45986007318320  0.02846865532493
1   -1.83410729069620  1.65589242559133  -0.03951023885375
1   -2.38931254679054  -0.64069784164515  -0.06377533052810
1   -0.39847271986790  -2.43533873294155  0.23204393088258
1   1.89993361714427  -1.73875633679442  0.11086649045911
1   2.43910893200565  0.42004866084088  -0.00577099783619





