%nproc=4
%Mem=2Gb
# TD=(NStates=1) B3LYP/6-31G(d,p)  

EMISPCT

0 1
6   0.34978401913080  1.45238032141135  0.18240857714041
6   1.33429984069317  0.35864609154041  -0.16113837916473
6   0.99455383915906  -0.99284567919341  0.05320459425852
6   -0.31860563868120  -1.42904439266620  0.02931972131144
6   -1.36051572267444  -0.40491881415062  -0.03167632073610
6   -0.98757754014864  0.99939048018648  -0.07439462189497
1   0.65894979757047  2.24767493575710  0.25657528342047
1   -1.81920508278467  1.64831134299504  -0.20518088538726
1   -2.49173400619507  -0.39037809916529  -0.09185091124562
1   -0.67319529293991  -2.37218565696323  0.35898656404195
1   1.80803215030816  -1.73434542482813  -0.14404813010520
1   2.36632303497694  0.78128475961497  -0.14338138989027





