%nproc=4
%Mem=2Gb
# TD=(NStates=1) B3LYP/6-31G(d,p)  

EMISPCT

0 1
6   0.31651884037435  1.35272736966470  -0.03567900062531
6   1.40548614253524  0.39228005340972  0.00739633091165
6   1.05813559288524  -1.03305760582689  -0.01433560075411
6   -0.36273041685513  -1.34435188681156  0.02446555781253
6   -1.31545821235692  -0.35078469087215  -0.05965140139328
6   -1.08028531406962  0.96939589347964  0.05370059115835
1   0.62061190585359  2.23620837512720  -0.00509751290740
1   -1.69608820265881  1.83112536919613  0.09813791703885
1   -2.53010659332172  -0.57393392692988  -0.05038363623066
1   -0.69677101357357  -2.36725900874756  0.23315596271483
1   1.70248921925696  -1.81692647837869  -0.08931752973020
1   2.34003012866102  0.81384191614649  0.14290894528041





