%nproc=4
%Mem=2Gb
# TD=(NStates=1) B3LYP/6-31G(d,p)  

EMISPCT

0 1
6   0.39377414460903  1.41751287457326  -0.08164583249364
6   1.42379240800830  0.38865879895578  0.02297466537259
6   1.00924667081329  -0.97722019459483  0.00121713561828
6   -0.37186209171696  -1.39015018754996  -0.07568250404343
6   -1.41509004026543  -0.37414825764676  0.10017883366518
6   -1.01668612343350  0.94767023117122  0.00207750580420
1   0.59361710821144  2.40853480879280  0.14835198251945
1   -1.80054404944761  1.61981505410026  0.00183707375814
1   -2.36197408568549  -0.74920631500897  -0.06716036784030
1   -0.61849245081628  -2.43631345316494  -0.14032840317194
1   1.69602508232932  -1.72906620030391  0.29013803816024
1   2.22095367193847  0.72486962010188  0.18918035629097





