%nproc=4
%Mem=2Gb
# TD=(NStates=1) B3LYP/6-31G(d,p)  

EMISPCT

0 1
6   0.40850391689582  1.44159244035921  0.05434360058144
6   1.39176221839086  0.37950013628855  -0.03236402080055
6   1.02822248827245  -0.94503843500010  -0.00947273858122
6   -0.39047192570887  -1.40194706811547  0.03370932386821
6   -1.43147442205560  -0.38219464002916  -0.07490397748373
6   -1.04003694962653  0.92449022022394  0.06192473509043
1   0.74895936813347  2.46729986816458  -0.02485661518229
1   -1.71307680561284  1.70224283126771  -0.28757539449192
1   -2.41354291624477  -0.76194217105684  -0.18606541157523
1   -0.66462943370994  -2.46580433695588  0.32898345809631
1   1.92834935144978  -1.56556436348100  -0.04177665803697
1   2.48964523196942  0.47463646317593  -0.24295798869582





