%nproc=4
%Mem=2Gb
# TD=(NStates=1) B3LYP/6-31G(d,p)  

EMISPCT

0 1
6   0.35619998231847  1.36744497950264  -0.04677944772730
6   1.42159471693117  0.33265703848027  -0.03062274494789
6   1.03801552774622  -1.05515660569127  0.13476923629196
6   -0.33524956509759  -1.29738535555298  -0.07502004248155
6   -1.39921998468403  -0.37692307701911  0.02233995988810
6   -1.10385386422511  1.01900640612990  0.02856851158206
1   0.64170760140041  2.38198672524757  0.00731441749577
1   -1.79957235995468  1.80830825692350  0.21015658760146
1   -2.41312480236160  -0.81808249423959  -0.09502216960034
1   -0.57444093929221  -2.42727274471565  -0.33141468637991
1   1.98201869650492  -1.67768822240043  0.02903428191824
1   2.37417248106509  0.86967188023201  -0.27457055664228





