%nproc=4
%Mem=2Gb
# TD=(NStates=1) B3LYP/6-31G(d,p)  

EMISPCT

0 1
6   0.40699861332549  1.36325959196479  -0.00988706972964
6   1.33365096012604  0.41105089201303  -0.01313324204830
6   0.98497638816158  -0.92338072031437  0.05923696262663
6   -0.34729451963937  -1.35871991725481  -0.03307800358026
6   -1.42225299741842  -0.39553488566233  0.01535235332962
6   -0.95189146636538  0.91972875104616  -0.02198360047651
1   0.62018851369176  2.41088711347861  -0.11603186582515
1   -1.70983059628062  1.66917196247563  0.30799181249631
1   -2.48876707984213  -0.64067825646319  0.06861924137285
1   -0.55977412648845  -2.46383288849769  -0.22966710303043
1   1.75478867487774  -1.77685858348288  0.02926427726587
1   2.35639426612707  0.62670121812304  -0.01245483060730





