%nproc=4
%Mem=2Gb
# TD=(NStates=1) B3LYP/6-31G(d,p)  

EMISPCT

0 1
6   0.36740350350043  1.42869599735002  0.08281840170470
6   1.34238440728332  0.39610079593497  0.01734740394235
6   1.02816200673333  -1.01453425233279  -0.01348947711771
6   -0.35512159064883  -1.39770314529359  -0.01618906939032
6   -1.37411045722188  -0.38669461294946  0.04886766404443
6   -0.99269845274192  0.98964247194928  -0.03997332784738
1   0.61102367282264  2.46400217887075  -0.29987399037211
1   -1.68876709401870  1.61337516372902  -0.44272331898396
1   -2.44317666501835  -0.69246585224972  0.06328536454131
1   -0.64170228300013  -2.46357431095176  -0.05163764247510
1   1.68835915059410  -1.89918491998625  -0.22573545676441
1   2.30321722965684  0.78877421145546  -0.12820742553891





