%nproc=4
%Mem=2Gb
# TD=(NStates=1) B3LYP/6-31G(d,p)  

EMISPCT

0 1
6   0.41702859217673  1.37609171065704  0.01717475589375
6   1.36940131770831  0.38453118140267  0.00981846779566
6   1.05359759301635  -0.94524362463730  -0.02547860126550
6   -0.38406292098535  -1.38365423920749  0.02284835574154
6   -1.44123278306194  -0.42244459426467  0.03382022505776
6   -1.01003635673016  1.01155093625335  -0.07431506496673
1   0.56543564485856  2.42961483718254  0.40796606661592
1   -1.76399235627842  1.61086560068425  -0.12874647199700
1   -2.42548756338616  -0.65010378336414  0.20380657696445
1   -0.53028156398723  -2.56015963158442  -0.17177711424869
1   1.71542276646591  -1.76854777996680  0.09262513317493
1   2.39429175211243  0.71503372753465  -0.18341608001494





