%nproc=4
%Mem=2Gb
# TD=(NStates=1) B3LYP/6-31G(d,p)  

EMISPCT

0 1
6   0.33375782822080  1.38384732434213  0.12818651205712
6   1.36888258277795  0.38078507106181  -0.09789403004629
6   0.99574304131024  -1.00399306730759  0.01079432216202
6   -0.36813386169740  -1.39565132335745  0.06606114523684
6   -1.34871843489563  -0.38658463012680  -0.07314985230296
6   -1.01670573728815  1.00463108573377  -0.02800258702135
1   0.53389425709462  2.51329719557016  0.16204433853642
1   -1.59834621398914  1.92136227698779  -0.20111031836033
1   -2.36858287324387  -0.70715480614602  0.04400491175931
1   -0.46885676016613  -2.48775183575039  0.17123278258558
1   1.82801178780629  -1.78873801217506  -0.06712489301567
1   2.47038751464803  0.76975156483531  -0.19099612600573





