%nproc=4
%Mem=2Gb
# TD=(NStates=1) B3LYP/6-31G(d,p)  

EMISPCT

0 1
6   0.35682239110090  1.36921137542220  0.00853105238578
6   1.40186220904264  0.38839371663734  -0.04853704041011
6   1.00203827981642  -1.00442057416526  0.04322535367192
6   -0.35373495317228  -1.38626249141214  0.02999988584238
6   -1.36616724715696  -0.41374330099753  -0.10393327873328
6   -1.01578061027071  1.01356447237927  0.06053100342993
1   0.67721001220671  2.50010841060233  -0.13279013622673
1   -1.96614214038420  1.77768695595460  0.31383750337771
1   -2.47598314303866  -0.67522130664290  -0.14377118109207
1   -0.74872515845097  -2.33381130925410  0.19669586233182
1   1.86851730482574  -1.61773123892521  -0.05796332392301
1   2.34049699376219  0.69718489078369  -0.03685139901809





