%nproc=4
%Mem=2Gb
# TD=(NStates=1) B3LYP/6-31G(d,p)  

EMISPCT

0 1
6   0.34427413941612  1.30069274088066  -0.06655759802624
6   1.35130929455149  0.40438076554395  0.10843509475720
6   1.06909560801796  -1.00665642747609  -0.07104593141958
6   -0.39568167539985  -1.35756507133291  -0.04061657101894
6   -1.33602190623760  -0.32756812076957  0.08400583825906
6   -0.99807628093737  0.96003221234429  -0.04629451991880
1   0.47871552121994  2.47348286398477  0.13378217507358
1   -1.87114551738408  1.71915479566140  -0.20082276931396
1   -2.36057030569527  -0.65940508339868  0.30967178890047
1   -0.57888210018563  -2.34273402833028  0.08445413466131
1   1.64344692406342  -1.68278546786841  -0.15896674914595
1   2.33455884391596  0.74671799773357  0.27021114717768





