%nproc=4
%Mem=2Gb
# TD=(NStates=1) B3LYP/6-31G(d,p)  

EMISPCT

0 1
6   0.39158068499230  1.37378023011664  -0.12797313861732
6   1.39301180091647  0.40265045209235  0.06708992464970
6   1.00971538886853  -0.97811029506753  -0.02153467094814
6   -0.37688007103409  -1.41151273498760  -0.03539698212217
6   -1.38632535548128  -0.40198225342393  0.00675104374103
6   -1.02797992539331  1.02270103213706  0.10122221351525
1   0.64131729768202  2.39812161067086  -0.35620603264738
1   -1.73887946135454  1.71339372284809  0.22116972569155
1   -2.67539723267776  -0.81278012211485  -0.24388534782287
1   -0.55668317480485  -2.43230407100496  0.10518310539485
1   1.88473506181354  -1.60735097049081  -0.02172592592249
1   2.39867116249897  0.66618467772954  0.42995580898881





