%nproc=4
%Mem=2Gb
# TD=(NStates=1) B3LYP/6-31G(d,p)  

EMISPCT

0 1
6   0.39305116086488  1.35633007757249  -0.02425551821627
6   1.36048768739971  0.42606301931370  0.01555434176715
6   1.03432033649373  -0.96460852849500  -0.05464963681680
6   -0.37225150764391  -1.37474735633310  0.01765670115426
6   -1.39855359697171  -0.42911949449912  0.03810084826612
6   -1.00422858343043  1.00182595603206  -0.04330700831375
1   0.62738600906765  2.39763274701955  0.15893729506542
1   -1.67319304383912  1.80285972173904  0.16612357694434
1   -2.50527042058161  -0.76204025713441  0.03070561469712
1   -0.60381835996766  -2.43934940120223  -0.09715415232659
1   1.66485010370202  -1.80641819423120  0.24096837012005
1   2.35007903507701  0.62957787339594  0.19604568167669





