%nproc=4
%Mem=2Gb
# TD=(NStates=1) B3LYP/6-31G(d,p)  

EMISPCT

0 1
6   0.35502492188145  1.33419742307549  -0.00515003744604
6   1.38275583488602  0.42230479733098  -0.00435044304898
6   1.02709070662786  -1.00411529264741  0.04352536886094
6   -0.36046160640192  -1.34715362360671  -0.03135365185172
6   -1.38103201111204  -0.37464656493656  -0.00260913590654
6   -1.02476543360680  1.01013594641182  0.02416814705144
1   0.73745037681633  2.30012893964781  -0.26465136206343
1   -1.86263552489366  1.53331760546996  0.06284712586017
1   -2.39089030746523  -0.74448915367235  0.07279488138433
1   -0.63966218480425  -2.43505952083651  -0.21412542635165
1   1.76179306123698  -1.89872310685094  0.04876606062227
1   2.43517602174571  0.78768414370447  -0.03678866412601





