%nproc=4
%Mem=2Gb
# TD=(NStates=1) B3LYP/6-31G(d,p)  

EMISPCT

0 1
6   0.39180847643965  1.41731672608969  0.03993661780963
6   1.35847126838670  0.46781037433323  -0.07483699464647
6   1.02783449434763  -1.03206436109067  0.02318018715847
6   -0.39152533879132  -1.40560516238620  -0.00823211094612
6   -1.37390508152616  -0.41547027198226  -0.02669478936260
6   -0.98890143418598  1.00092231879488  0.00511144013582
1   0.60204107725136  2.49858724761217  0.17354219478936
1   -1.84758677204716  1.70770593914236  -0.09528573834711
1   -2.37737280498328  -0.73666418695158  0.06659009650208
1   -0.71317067820550  -2.61422812416571  0.24592112371073
1   1.72536972775931  -1.72329840512758  0.03696461154756
1   2.35942061548440  0.47456174544978  0.13991092643121





