%nproc=4
%Mem=2Gb
# TD=(NStates=1) B3LYP/6-31G(d,p)  

EMISPCT

0 1
6   0.33338476072385  1.37203218471671  -0.00854055380489
6   1.35449521545796  0.31581495956217  -0.05743117550889
6   1.01395344477402  -0.95545679833420  0.03698088985503
6   -0.29896542698852  -1.37106050631047  0.02500209926257
6   -1.34534982441368  -0.39012176220982  0.06345566091349
6   -1.06806558962883  1.05921857422379  -0.04013033378252
1   0.70466118788310  2.41450528796701  0.26911838972403
1   -1.84735415884641  1.80538735702008  -0.16530649975753
1   -2.27409136030382  -0.87232643046472  -0.09874596642741
1   -0.60846055585287  -2.37983984470072  -0.32496031982947
1   1.59418681227540  -1.88216747822540  -0.25983205150417
1   2.52382526705315  0.58801992510748  0.31544909301899





