%nproc=4
%Mem=2Gb
# TD=(NStates=1) B3LYP/6-31G(d,p)  

EMISPCT

0 1
6   0.35592683799749  1.30156344542400  0.00288319354065
6   1.36921605869555  0.36953798249441  -0.05686310380699
6   1.09900286691526  -1.00142678182015  0.05747111997761
6   -0.36220507982571  -1.28827655583569  -0.03893235932152
6   -1.39810527609325  -0.42311553893851  0.02148924156573
6   -1.03673468437051  1.00243852936314  0.02066892805479
1   0.52334847385210  2.42151403494335  0.33232703489897
1   -1.67241838887290  1.82733489938757  -0.22407256016549
1   -2.54901918013948  -0.52111453867627  -0.06917975346456
1   -0.62788051764668  -2.30708590125495  -0.12649439047785
1   1.76478124878007  -1.88290307173362  0.28390529178747
1   2.24402579809617  0.88131659109586  -0.28829556271890





