%nproc=4
%Mem=2Gb
# TD=(NStates=1) B3LYP/6-31G(d,p)  

EMISPCT

0 1
6   0.35437223728569  1.41223902471981  -0.01877860984823
6   1.36298195357267  0.37753521727356  0.03425651651077
6   1.05661018584945  -1.04075293860725  -0.00884556268624
6   -0.34262361455804  -1.37869826511677  -0.03216598392009
6   -1.39687483821198  -0.38739301592022  -0.05152231942366
6   -0.98731132781235  1.01662343236871  0.04096027739476
1   0.51444301104100  2.51596969035218  -0.27788799832896
1   -1.90703800259796  1.66557923808854  0.14822111457036
1   -2.42097357174769  -0.76717177219740  0.29648896541903
1   -0.64218674817008  -2.31504256854398  0.14079952315576
1   1.70368614412590  -1.78237927789443  0.11824704179419
1   2.21947491854522  0.64054603102448  0.06742834034971





