%nproc=4
%Mem=2Gb
# TD=(NStates=1) B3LYP/6-31G(d,p)  

EMISPCT

0 1
6   0.35570665548795  1.35091867696405  -0.14795303981701
6   1.32624460940642  0.34514011312871  0.10522993090546
6   1.00464816723220  -0.97026198854347  -0.03273428285526
6   -0.32589163068648  -1.35730491824920  -0.03275107485722
6   -1.39769962447579  -0.40928193517600  0.00833893048038
6   -0.98774386162648  1.01274193506536  0.10238821316240
1   0.64613397304640  2.43380424139238  -0.17564057371721
1   -1.75246022633065  1.86207019307491  -0.03129014497102
1   -2.45142319674523  -0.68832283959219  -0.04983049626263
1   -0.51208050897312  -2.33101527324093  0.03968432624596
1   1.93011528121299  -1.71050019243338  -0.10362740661113
1   2.41333670820392  0.78549048290774  0.28627170939320





