%nproc=4
%Mem=2Gb
# TD=(NStates=1) B3LYP/6-31G(d,p)  

EMISPCT

0 1
6   0.32568305609827  1.40676574366734  0.03247873300515
6   1.35170310283070  0.41064740162690  0.00582094928229
6   0.96253530164522  -1.01576657676920  -0.08631024832688
6   -0.34336952695265  -1.40687372940681  0.01664782785499
6   -1.29511126788110  -0.36149283850218  0.03028269728245
6   -0.97890934195738  0.96119617581911  -0.03685636869676
1   0.70972230394160  2.48977850862137  0.28728967059959
1   -1.75778653004091  1.71661825145021  -0.30924536011187
1   -2.29565519407108  -0.68197826193965  0.04404036383243
1   -0.79512852285303  -2.54040675531294  0.25515344377958
1   1.59074116631834  -1.82735269212327  0.17031245498841
1   2.29856085828074  0.87215036765767  0.07090302476171





