%nproc=4
%Mem=2Gb
# TD=(NStates=1) B3LYP/6-31G(d,p)  

EMISPCT

0 1
6   0.31372505121783  1.36422828751060  -0.02417759501283
6   1.36246593014610  0.40105612223051  0.02972532544154
6   1.03063623335987  -1.01832110904942  0.03994653968443
6   -0.35931023903855  -1.39078247671386  -0.06996619453515
6   -1.36138686036513  -0.39439347791371  0.10355120994208
6   -0.99344244662733  1.02182021821401  -0.05006097291459
1   0.68975935904800  2.40745453067442  0.12200966000974
1   -1.72704490382497  1.92372188557253  -0.21151300623385
1   -2.31128288285244  -0.68489789690819  0.09629711858129
1   -0.63195770652675  -2.41076841771611  -0.18125668936685
1   1.83262880329332  -1.79778623416133  -0.19732532921311
1   2.23868566635953  0.75300755428843  -0.02480602605202





