%nproc=4
%Mem=2Gb
# TD=(NStates=1) B3LYP/6-31G(d,p)  

EMISPCT

0 1
6   0.40096830253734  1.38525718633844  -0.01655293798023
6   1.36052022907809  0.39361060134787  0.00192004620927
6   1.02639491585032  -0.98776216075523  -0.07826801374323
6   -0.36404308621980  -1.41995499691478  0.19216895322526
6   -1.37968394227003  -0.40482135560247  -0.09536238310575
6   -1.00591384496287  1.01835529438803  -0.00655473310407
1   0.37392375746372  2.44808856570476  0.30003271045501
1   -2.01656001556817  1.77089029109151  0.29661400010672
1   -2.42672941637791  -0.59340179909886  -0.31638045069097
1   -0.63399347776353  -2.41435096444104  -0.06425021418480
1   1.77371930260761  -1.65867982351620  -0.22463355435549
1   2.50459379296288  0.58771024576365  0.04481077815242





