%nproc=4
%Mem=2Gb
# TD=(NStates=1) B3LYP/6-31G(d,p)  

EMISPCT

0 1
6   0.34174655243156  1.32023925966641  -0.00017815113623
6   1.48127787519422  0.37955811567636  -0.11440166950694
6   1.05496165497283  -0.92060935644258  0.06905757799146
6   -0.40318835660013  -1.33646736347185  0.04589897834848
6   -1.42832633146826  -0.37590278412976  -0.07687781642033
6   -1.02941804638896  0.95766026878728  0.10873463804103
1   0.45870762593240  2.28589537465201  0.08925132908569
1   -1.74933912723210  1.69257461178492  0.00352118878915
1   -2.50065070955142  -0.72253054773281  -0.60976922709824
1   -0.64447914447511  -2.46063086168210  0.14391349416093
1   1.72447497777069  -1.82146562157458  -0.06016048201946
1   2.52015921001296  0.73064177454709  -0.00729225292335





