%nproc=4
%Mem=2Gb
# TD=(NStates=1) B3LYP/6-31G(d,p)  

EMISPCT

0 1
6   0.33460576465354  1.40024167720863  0.00512912125049
6   1.37813397636018  0.36122612373442  0.06581491289970
6   1.07183545355266  -1.04558561975428  -0.01936387904845
6   -0.32373372577450  -1.35509507999500  -0.11216643864075
6   -1.39096420294413  -0.37151610175978  0.15493095542021
6   -1.08140542860985  1.01459018235251  -0.08517905678464
1   0.75046849318128  2.39383179115927  -0.13539862210938
1   -1.70910650862725  1.83643491845779  -0.33175065765211
1   -2.34623182033890  -0.67762512892699  0.22507983367213
1   -0.78334785808389  -2.51244532153233  0.06791626392396
1   1.89395017941255  -1.87341810264947  -0.19669086265729
1   2.31529797875422  0.80225111591224  0.24556997183644





