%nproc=4
%Mem=2Gb
# TD=(NStates=1) B3LYP/6-31G(d,p)  

EMISPCT

0 1
6   0.30778955532318  1.34548032621542  0.08698120868383
6   1.35331738155778  0.34144867454523  -0.07127662844621
6   1.07877274783271  -1.04617890678305  -0.03708983233570
6   -0.30210334265392  -1.31045082448558  0.13262820602315
6   -1.33686312087199  -0.34904358874093  -0.11900569037040
6   -1.07851477496346  1.01041673135113  0.02498189087790
1   0.61457389128045  2.45997794859967  -0.07540407167797
1   -1.81889008821636  1.89254280813659  0.19936274867998
1   -2.44099957440101  -0.75598483606963  -0.47087725591619
1   -0.83588916595755  -2.40910058197950  0.28533008789292
1   1.75239016683316  -1.78892542256149  -0.05056771929919
1   2.46203356424994  0.66747408797098  -0.12318290025820





