%nproc=4
%Mem=2Gb
# TD=(NStates=1) B3LYP/6-31G(d,p)  

EMISPCT

0 1
6   0.34777381934221  1.37770455144774  -0.00015442380053
6   1.37902613857595  0.37536715271288  0.06389171379903
6   1.05072101167256  -0.99630999463736  -0.07363672870370
6   -0.34019526677356  -1.37331042838396  0.04844534481692
6   -1.36632984846328  -0.39617901786988  -0.00322584646033
6   -1.03519415207586  1.05651648722675  -0.02689822629118
1   0.59821630090205  2.41653557409418  -0.15491097406218
1   -1.92239091425296  1.65959187709951  0.10658676615761
1   -2.53432582874077  -0.85579214803387  0.01564450205853
1   -0.70457145304203  -2.38883333277552  -0.06289353083719
1   1.74285004437069  -1.90559096747993  -0.00573537982612
1   2.40515777249641  0.55165682303047  -0.01380043941363





