%nproc=4
%Mem=2Gb
# TD=(NStates=1) B3LYP/6-31G(d,p)  

EMISPCT

0 1
6   0.38936374017856  1.42260809420920  -0.01068274546770
6   1.32981507980415  0.37460430108307  -0.00781808472831
6   0.97094994295561  -0.99938815959977  0.00806620588513
6   -0.33113636537782  -1.33387034849646  -0.02055494334416
6   -1.35274928299960  -0.47470498305657  0.00844003328688
6   -0.99749123034660  0.98510599595483  0.01812309274524
1   0.54804827182890  2.54706210460744  -0.20377229607944
1   -1.69238775340981  1.89565143361691  0.18095491207949
1   -2.35869194972471  -0.67315145210388  -0.10298479503932
1   -0.67504797376257  -2.39239348336538  -0.07241058133602
1   1.65096064244542  -1.76834780749884  0.18771754472926
1   2.37909020803783  0.67141634503049  0.07097925115931





