%nproc=4
%Mem=2Gb
# TD=(NStates=1) B3LYP/6-31G(d,p)  

EMISPCT

0 1
6   0.37671063558904  1.38514388405793  -0.00911729656882
6   1.34774177214446  0.36385635145093  -0.02491093320102
6   1.05274952584751  -0.99998568135022  0.03970456166400
6   -0.34684329404990  -1.32236850862011  -0.00519606125355
6   -1.36771750809177  -0.37499509172882  0.03531608980635
6   -1.06696388675114  0.96667835308545  -0.01427455944737
1   0.69548623342233  2.43283222613773  -0.04697871268918
1   -1.91397219914446  1.65848257270160  -0.01195727020038
1   -2.39913572255690  -0.76729165258741  0.16655986842052
1   -0.67724334795179  -2.23495807051932  -0.60755733925184
1   1.80351204777371  -1.88737367097303  0.18142628832486
1   2.53767761836138  0.58844252016746  0.02436521840160





