%nproc=4
%Mem=2Gb
# TD=(NStates=1) B3LYP/6-31G(d,p)  

EMISPCT

0 1
6   0.39927439169522  1.37209350700280  -0.04105667043153
6   1.45701230569417  0.41096755529283  0.04585238905260
6   1.00355260639242  -1.05207250148763  -0.10031278241263
6   -0.33039317450234  -1.35577512274204  0.06175223987089
6   -1.40660835156436  -0.39075316796094  -0.02594313845248
6   -1.09029296846805  0.98796410831922  -0.02476716374754
1   0.49257617148076  2.53882085386242  0.22329078040710
1   -1.74969793696732  1.79365771398439  0.18903916022957
1   -2.41795005916566  -0.59942187327078  0.14708910388485
1   -0.69677051765597  -2.57920654772331  0.22920440787779
1   1.71736005154564  -1.77386207725356  0.01055537458017
1   2.26271700352855  0.89783150555175  0.35530389667005





