%nproc=4
%Mem=2Gb
# TD=(NStates=1) B3LYP/6-31G(d,p)  

EMISPCT

0 1
6   0.38846921996589  1.44596562608570  0.00071350762154
6   1.27955345969524  0.38062522550033  0.06835027550633
6   0.97297257202960  -1.01387300625573  -0.06143787639270
6   -0.36843016720189  -1.38312935136148  -0.02252781175530
6   -1.28887833363640  -0.42697473941521  0.10742497560165
6   -0.99611666608185  0.98573135034003  -0.05483426537683
1   0.66191350353368  2.49883553467968  0.06548368341860
1   -1.75055822881189  1.86310790454083  -0.43572435010663
1   -2.27607102299189  -0.73289192968879  -0.10553276038371
1   -0.58508006274491  -2.41403886833324  0.18759603852869
1   1.79783605078021  -1.70683204623782  -0.34839614833487
1   2.26018453250404  0.63332157907247  0.12148253241391





