%nproc=4
%Mem=2Gb
# TD=(NStates=1) B3LYP/6-31G(d,p)  

EMISPCT

0 1
6   0.39284635886710  1.37661784487652  -0.02168721101497
6   1.39017949736376  0.40126297429199  0.06401982707907
6   0.98697788985712  -0.98245107083756  -0.05903618158490
6   -0.34236406716118  -1.35598524746355  0.02395815005212
6   -1.41200491623397  -0.40328385642064  0.00872303195552
6   -0.98897724435795  0.95881263535376  -0.00043507281995
1   0.59443278538608  2.40980989081071  -0.21883023380427
1   -1.84058492235115  1.64057035841468  -0.03770246453383
1   -2.47707800481497  -0.75927338719260  0.03160110642884
1   -0.67041492722887  -2.34004543843492  -0.00269721752484
1   1.66685048563028  -1.64369799856953  -0.16974103671088
1   2.42011740312174  0.72527530918079  0.18494441603070





