%nproc=4
%Mem=2Gb
# TD=(NStates=1) B3LYP/6-31G(d,p)  

EMISPCT

0 1
6   0.37444241860618  1.39984732322382  -0.12758485937165
6   1.31612687615502  0.38589889409795  0.09769166628444
6   0.99823594382941  -0.96891266112526  -0.05584597431308
6   -0.32336145157806  -1.38958338954367  0.02511867033960
6   -1.36537487937804  -0.39746013490315  -0.03207863452746
6   -0.99453729726874  0.97926207111357  0.05246896623091
1   0.60584932546383  2.37540464044441  0.04927498686548
1   -1.79154023864537  1.94094567547607  0.35830816971523
1   -2.50459733290645  -0.69532867844151  -0.09095961814946
1   -0.54120841025048  -2.42832042868129  0.10947123202100
1   1.78084555284721  -1.73320729937439  0.00577319849733
1   2.37732832474468  0.44651350433886  0.11793362426603





