%nproc=4
%Mem=2Gb
# TD=(NStates=1) B3LYP/6-31G(d,p)  

EMISPCT

0 1
6   0.36716257861007  1.32655239937692  -0.06453489732015
6   1.34710102656015  0.37548457501399  0.01247971529255
6   1.06086942988991  -0.98551352492721  -0.00200969832769
6   -0.37165860980467  -1.39884716801779  0.02767180406693
6   -1.38816407080365  -0.32849645537728  -0.00897263436439
6   -1.02201248636671  0.97719456755267  0.03945755628040
1   0.70448869017219  2.39398968784963  0.11438406417285
1   -1.90368427810641  1.73240905028532  0.15391627042161
1   -2.46811575186791  -0.73371440432910  -0.28271494662906
1   -0.56763915648285  -2.30234920132349  -0.05889294057473
1   1.77156756568764  -1.70816685749001  0.01141113931706
1   2.58531875966746  1.00135966275709  0.00596385638100





