%nproc=4
%Mem=2Gb
# TD=(NStates=1) B3LYP/6-31G(d,p)  

EMISPCT

0 1
6   0.39881218077279  1.36059269167010  -0.04278298871991
6   1.36792948989772  0.37646875040078  0.00840645234802
6   1.06845741268799  -0.96673565173650  0.04078290577847
6   -0.37163679352318  -1.36885373028305  -0.06443345831937
6   -1.38508238026802  -0.33074981583141  0.06026271499821
6   -1.06391683048774  0.96484527830349  0.05245734595430
1   0.68323194120323  2.41571031214938  -0.05338118793075
1   -1.85790866479838  1.56204808298171  -0.28125648905312
1   -2.43801020071544  -0.78464983268294  -0.18349440299696
1   -0.76740081675777  -2.51510238353358  -0.20288149175789
1   1.86552295854774  -1.75738352524824  0.10727602069576
1   2.36975705995907  0.67105847105149  -0.13374373349987





