%nproc=4
%Mem=2Gb
# TD=(NStates=1) B3LYP/6-31G(d,p)  

EMISPCT

0 1
6   0.31096761141986  1.37969287703983  -0.01731193003508
6   1.40183306523912  0.39649964553122  0.02461559237660
6   0.97801558035650  -0.96166980765560  0.04585821923129
6   -0.33672235690971  -1.41889618398636  -0.03448093305495
6   -1.43598497486243  -0.37838347720987  -0.01053824773638
6   -0.96246397379264  0.96381287360346  0.02786124930385
1   0.62701500611330  2.46257085656682  -0.24368189673169
1   -1.62143089128127  1.84861860748355  0.14074722029373
1   -2.47680856711899  -0.43118454567452  -0.08209761144104
1   -0.42000811782971  -2.58609059839565  0.00458368738681
1   1.89376323880707  -1.59696246937752  -0.13474901589135
1   2.51780920880130  0.56482605973351  -0.17686703478267





