%nproc=4
%Mem=2Gb
# TD=(NStates=1) B3LYP/6-31G(d,p)  

EMISPCT

0 1
6   0.30988812492810  1.33534883808532  0.01242416049091
6   1.38468099296540  0.44218269575342  0.00549522626028
6   1.06763995764555  -1.04924848081812  -0.05283469196221
6   -0.33807019671509  -1.41921507012046  -0.01699338734976
6   -1.40683323379433  -0.34645665736888  0.15113062164978
6   -1.01072094278140  0.98985393827108  -0.07918657996808
1   0.52037389794166  2.52472555681989  0.03909670506284
1   -1.60055710288728  1.80965260839613  -0.43923284012954
1   -2.44037787268411  -0.37002768776590  0.09351069478862
1   -0.62085282632026  -2.40767455272813  -0.45226494616786
1   1.73240465344549  -1.66365930613965  0.12092717616217
1   2.39287191009200  0.63078682229436  0.36413610563116





