%nproc=4
%Mem=2Gb
# TD=(NStates=1) B3LYP/6-31G(d,p)  

EMISPCT

0 1
6   0.42620110518833  1.36183302633261  0.04784565207322
6   1.44099386481372  0.41924852690900  -0.01924712081373
6   0.94732919455766  -0.95149247828198  -0.06746671913170
6   -0.38124136912122  -1.43942379313953  0.05304441026529
6   -1.37616076836185  -0.39405704584995  -0.01641348787731
6   -1.03106090917909  0.97311959581245  -0.01909380410111
1   0.49762133744110  2.37395275053138  -0.06023926812327
1   -1.87677052142776  1.74764312716705  -0.00060314189952
1   -2.51816408585062  -0.59369324475502  -0.00810658637243
1   -0.57852567371932  -2.42289380631162  0.01807014788038
1   1.86337643916367  -1.52155039399191  0.21793317778744
1   2.30196758655809  0.74630723366948  0.12445962172687





