%nproc=4
%Mem=2Gb
# TD=(NStates=1) B3LYP/6-31G(d,p)  

EMISPCT

0 1
6   0.34925724719940  1.33772730899516  -0.00687542473265
6   1.41140055398221  0.37211392128300  0.11990649108735
6   1.02428954025143  -0.95174959912609  -0.07577051152882
6   -0.31089681422636  -1.30840962329084  -0.03760411768260
6   -1.42030265534605  -0.44436858922672  0.08330276256962
6   -1.05401818605847  0.98192638169203  -0.05240042714994
1   0.59754179437246  2.30154054665434  -0.42430187261133
1   -1.67089977612565  1.89195581048206  -0.01453397417529
1   -2.45173291700914  -0.49563005329485  0.01837704571966
1   -0.66964982839623  -2.33009560717985  0.09834665668643
1   1.63245681629652  -1.86581813043651  -0.19716384742512
1   2.53722056150344  0.64639944268762  0.10162876677851





