%nproc=4
%Mem=2Gb
# TD=(NStates=1) B3LYP/6-31G(d,p)  

EMISPCT

0 1
6   0.30696482881322  1.30675254592395  -0.05893708643131
6   1.35528788842814  0.39313451138069  -0.01533590715784
6   1.10511777708583  -1.04697299603987  0.01656969497160
6   -0.33873548494196  -1.34075617016324  0.02115000482494
6   -1.39838771391895  -0.31092873798991  -0.10159218440130
6   -1.03689681720430  1.01760429966671  0.09582987764486
1   0.54710381955213  2.39767898156284  -0.03248362556362
1   -1.85816722661869  1.65839860435161  0.26726228671119
1   -2.43267499321614  -0.55385732493099  -0.01713934575228
1   -0.43718303043514  -2.44770866869994  0.15918830477054
1   1.83343465640221  -1.93073169409958  0.06741444084180
1   2.48112905634050  0.66761675123500  0.13406047982937





