%nproc=4
%Mem=2Gb
# TD=(NStates=1) B3LYP/6-31G(d,p)  

EMISPCT

0 1
6   0.31292155361332  1.38418491151411  -0.16178770884020
6   1.36058966484935  0.40524059078625  0.15268539102941
6   1.00156127261846  -0.97429713032455  -0.00556102463285
6   -0.35754420597876  -1.39445222295490  -0.07489280509929
6   -1.35034852896258  -0.37072216935174  0.05335990101261
6   -0.99999871475614  0.98024212544447  0.07454648344682
1   0.58212364978256  2.23716771136154  -0.18931717669342
1   -1.56182886445449  1.75451526837148  -0.08169428370576
1   -2.32137595006404  -0.68352634669774  0.04314744839711
1   -0.51903691667161  -2.34578813113974  -0.12469491266627
1   1.69160476849192  -1.76687555051508  -0.19760153796686
1   2.51866406064245  0.49265879188609  0.02602989144303





