%nproc=4
%Mem=2Gb
# TD=(NStates=1) B3LYP/6-31G(d,p)  

EMISPCT

0 1
6   0.37199147067601  1.44192720165199  0.05170513374278
6   1.45621939317737  0.40364500848046  -0.10664499824372
6   1.00367686232574  -0.99429380772867  0.00905823239559
6   -0.33251007051933  -1.39307372104642  0.06384170735840
6   -1.46539372999058  -0.42648489548235  0.00414235743083
6   -0.98549271327980  0.99126057750799  -0.00311273815524
1   0.53204657374969  2.43156307585114  0.08689956340560
1   -1.82808267262951  1.69202966315709  -0.16707871589578
1   -2.54533494202244  -0.77418118054161  -0.28239633477022
1   -0.74650374575766  -2.44785473739973  -0.13787841857937
1   1.74130263026051  -1.82734774393075  -0.05684360041477
1   2.27641960694605  0.62650433148598  0.29776101436311





