%nproc=4
%Mem=2Gb
# TD=(NStates=1) B3LYP/6-31G(d,p)  

EMISPCT

0 1
6   0.41535454226863  1.36907904828088  0.00574558590307
6   1.36187727931475  0.39252770911216  -0.01247871958175
6   1.00575096675225  -1.01805054223531  -0.07148750914824
6   -0.35255598234213  -1.33059799878010  0.12249529249545
6   -1.38120159625193  -0.41620948637244  -0.05702725532566
6   -1.04858215192233  0.95282843266848  0.01998380505259
1   0.62464501430043  2.62634887187497  0.01614356274929
1   -1.80014869692753  1.80889592057658  0.04622704498345
1   -2.34816156712517  -0.61905016114969  -0.33562785395688
1   -0.65425855301966  -2.32712159922688  0.13351429289053
1   1.80742296789211  -1.67411896097029  -0.21322049413636
1   2.34671554774114  0.74685536855622  0.25412638906529





