%nproc=4
%Mem=2Gb
# TD=(NStates=1) B3LYP/6-31G(d,p)  

EMISPCT

0 1
6   0.32446726946064  1.37866734753598  0.01789416611309
6   1.44530535471525  0.32905321594017  0.05255197324241
6   1.05643562764789  -0.99085981582259  -0.04813406523460
6   -0.34440444738906  -1.32474950053806  0.01865407049048
6   -1.40496087735388  -0.40808020000084  0.01472165328923
6   -1.04877506351519  1.02240755379181  -0.03071235996180
1   0.50395146707532  2.40438326533043  -0.22426557768472
1   -1.85882604808489  1.79571676774929  0.07183199907057
1   -2.31573250094764  -0.70705550972142  -0.00453660100097
1   -0.56047660776535  -2.34970306778734  -0.10724368215558
1   1.62980840341864  -2.08363150503687  0.05278601748683
1   2.24648716462246  0.83437582347723  -0.12991380754665





