%nproc=4
%Mem=2Gb
# TD=(NStates=1) B3LYP/6-31G(d,p)  

EMISPCT

0 1
6   0.36827814350642  1.37212494773411  -0.02028523577527
6   1.33669970555138  0.38593085694174  -0.01115329922242
6   0.99853773427567  -1.02311396492046  -0.02063868563056
6   -0.30593550923941  -1.37532611783938  0.05712147647490
6   -1.34873329942281  -0.34961090101773  -0.04761990450874
6   -1.04630212826983  1.01802095906163  0.05861515771389
1   0.49299642657964  2.40073784865276  0.02248904484628
1   -1.91202044781183  1.76119768435932  0.04073758478216
1   -2.32267599343112  -0.67683776041035  -0.34360039204828
1   -0.41279227671265  -2.49749790691766  0.06611810341094
1   1.67675345825578  -1.86641906984074  0.02655518124042
1   2.45812018419416  0.56505353398557  -0.03151681260603





