%nproc=4
%Mem=2Gb
# TD=(NStates=1) B3LYP/6-31G(d,p)  

EMISPCT

0 1
6   0.34157168155705  1.33904986046822  0.07992045107688
6   1.33351389100520  0.36644788087657  0.05342332726875
6   0.99063895280078  -0.98491511694728  -0.13096595099068
6   -0.32319629863924  -1.39562513210351  0.12274199927732
6   -1.33751223521905  -0.37479696681099  -0.04674960026781
6   -1.01092843488775  1.04631588687150  -0.09485368669904
1   0.62452847126701  2.26769773067503  0.00624374286104
1   -1.75699757137413  1.73218257321601  -0.07225459608383
1   -2.52581997015551  -0.59866787184696  0.33169693091589
1   -0.48304456868734  -2.36567313130960  0.14564521414171
1   1.94616684169956  -1.77846742237365  -0.28094872033293
1   2.25968425254602  0.80415757580727  0.09488071973725





