%nproc=4
%Mem=2Gb
# TD=(NStates=1) B3LYP/6-31G(d,p)  

EMISPCT

0 1
6   0.33047960669886  1.36777373444007  -0.00746898620840
6   1.35344773797985  0.34955812831114  0.03675065636107
6   1.05388314421185  -1.00419845702899  -0.00215186107879
6   -0.35642269381600  -1.41706003055874  0.00503926928513
6   -1.30941516687318  -0.30892052012439  0.00805279711152
6   -1.05080886455490  1.05274218092263  -0.02558720878055
1   0.65633257956842  2.30746213437964  -0.13977229095470
1   -2.10528397918711  1.73277742453730  0.08409138784641
1   -2.36949601605500  -0.84812514077201  0.11095942024329
1   -0.57599336105271  -2.53409255504893  -0.09181728599304
1   1.83774976075559  -1.73734806534261  -0.21493130599844
1   2.32168797073839  0.61404631908081  0.05145229676008





