%nproc=4
%Mem=2Gb
# TD=(NStates=1) B3LYP/6-31G(d,p)  

EMISPCT

0 1
6   0.34455384953043  1.37672911586599  -0.06059110222373
6   1.37179157779569  0.38338942281224  0.10762385170984
6   1.01774914384072  -0.98251589594290  -0.02965933162562
6   -0.34575477126999  -1.38583525841745  -0.04095027736347
6   -1.31400144263712  -0.34995542097200  -0.02013170614941
6   -1.07013673576739  0.99417365179425  0.02554346725548
1   0.68781227570142  2.24553349419705  -0.02454655282414
1   -1.78314522177148  1.69691332608739  0.02285109165349
1   -2.31220295689533  -0.70469178124736  0.14524433092274
1   -0.66946847148187  -2.41901060214605  0.44687823721650
1   1.67796803248625  -1.75966248495313  -0.25141648440375
1   2.34393860522419  0.53138587360282  -0.09076494447370





