%nproc=4
%Mem=2Gb
# TD=(NStates=1) B3LYP/6-31G(d,p)  

EMISPCT

0 1
6   0.32903429841412  1.37148485853713  0.06252346191513
6   1.38136459494334  0.36460617778537  -0.06292323359144
6   1.03016011211008  -1.07492460800057  0.02409337099510
6   -0.31008950779458  -1.36228515263805  0.00672707951582
6   -1.36603574515427  -0.37640071806460  -0.02976569472152
6   -1.03399557080735  1.08297465821726  0.00048379439278
1   0.39345723857514  2.50530788093086  -0.11187006611114
1   -2.04526820310828  1.85303489804581  0.14464781077786
1   -2.15509622845769  -0.83769278527320  0.02501911074224
1   -0.75446434092638  -2.45181134459231  -0.30530602582965
1   1.92716192134321  -1.66986599897813  0.54756917607223
1   2.28001840790255  0.50866832729880  -0.31563397856534





