%nproc=4
%Mem=2Gb
# TD=(NStates=1) B3LYP/6-31G(d,p)  

EMISPCT

0 1
6   0.34710852252658  1.39608151049773  0.00114638507066
6   1.30690587768340  0.34377421617779  0.02687091468935
6   1.07620142118571  -1.04603961705310  -0.06214852556835
6   -0.30837109271882  -1.39437098114227  0.04754874049041
6   -1.34358874283185  -0.34954000254113  -0.03760050713828
6   -1.03905445057226  1.04380940338509  0.01867959911159
1   0.50085077328542  2.45709740331527  0.09629582778591
1   -1.94892209622114  1.68696484546370  -0.08348938594293
1   -2.35458313437745  -0.60474827991437  -0.20683871127764
1   -0.84681029694483  -2.42581908800139  0.45014559196834
1   1.82037763262375  -1.89506425957264  -0.21074522250882
1   2.40423331099428  0.81593935755766  0.02983427568505





