%nproc=4
%Mem=2Gb
# TD=(NStates=1) B3LYP/6-31G(d,p)  

EMISPCT

0 1
6   0.34751204100664  1.44713419418536  0.09399001223266
6   1.38839807034585  0.37452685300141  0.00501543820666
6   1.03779914572100  -1.03976884109643  -0.01850402699032
6   -0.35914343206810  -1.45188136684468  0.01289045535487
6   -1.39055456100849  -0.37109702688383  0.06068988201886
6   -1.05453372739727  1.04625884447314  -0.06996878230498
1   0.60832373949600  2.50891871866617  -0.14652598831706
1   -1.73190529751496  1.81132170063437  -0.29938977244030
1   -2.31831677308383  -0.68993980949714  -0.11767854430730
1   -0.51651132667835  -2.61406508466500  -0.19429947989957
1   1.85503442597692  -1.69503015913079  -0.06063169255349
1   2.45065523012610  0.65124991919607  -0.33102922889154





