%nproc=4
%Mem=2Gb
# TD=(NStates=1) B3LYP/6-31G(d,p)  

EMISPCT

0 1
6   0.37973809410047  1.39193832811432  0.01849599358802
6   1.36005567608136  0.37635783492752  -0.01105673466729
6   1.00518496749547  -0.98904953486327  0.04475581617930
6   -0.36042006410586  -1.35982309270262  -0.04296432022128
6   -1.37210325180712  -0.36223746663388  0.03626561598379
6   -1.00213818578837  0.91110788783835  -0.04091577604468
1   0.56313569529117  2.57873052781563  -0.01546490655824
1   -1.84944566043069  1.62535347354805  -0.03799603742496
1   -2.41508888455170  -0.58836275754592  0.21917222867855
1   -0.72060568978763  -2.31996744703210  -0.14546806443232
1   1.84385426394095  -1.66535635718401  -0.07844646626627
1   2.47069507838521  0.70480248197550  -0.00440888317404





