%nproc=4
%Mem=2Gb
# TD=(NStates=1) B3LYP/6-31G(d,p)  

EMISPCT

0 1
6   0.34400546738880  1.32158795067529  0.00590118902226
6   1.45068784708212  0.41458334480165  -0.04105153935037
6   1.06548033727034  -0.97328098098197  0.06076751025536
6   -0.38423778574542  -1.38695895001532  0.00073495540823
6   -1.41926410021238  -0.38051114533233  0.00074759669580
6   -1.03036490384631  0.98443519041899  -0.00134683859186
1   0.88988292852650  2.53001518800372  0.00406631208409
1   -1.96706722865272  1.80238321823869  -0.06709898148470
1   -2.54827973671481  -0.81899925176590  0.02159302093346
1   -0.74922760246954  -2.33979556767331  -0.13098541593342
1   1.71989379619599  -1.68196114662885  -0.30412363275255
1   2.36736976324422  0.70531852939439  0.12458209348095





