%nproc=4
%Mem=2Gb
# TD=(NStates=1) B3LYP/6-31G(d,p)  

EMISPCT

0 1
6   0.29715506021180  1.45472284905484  -0.06005555693599
6   1.42346972838693  0.37768567991124  0.05268310233824
6   1.02330847060689  -1.06325164093123  -0.03195145720692
6   -0.34651436883800  -1.44390271606972  -0.00686505628468
6   -1.36444304369063  -0.39580531142173  -0.00902303758718
6   -1.02682942085536  1.04855849005452  0.02703489680983
1   0.56393997831035  2.35990630215826  -0.14662511504883
1   -1.69470235077388  1.94388188999418  0.09553298713906
1   -2.41165869169639  -0.79796440597290  0.26224261028561
1   -0.75940808558256  -2.39867758503824  -0.16412394975515
1   1.76106718476591  -1.62059866076399  0.14891530179877
1   2.44727692209012  0.74679317810991  0.18913465342558





