%nproc=4
%Mem=2Gb
# TD=(NStates=1) B3LYP/6-31G(d,p)  

EMISPCT

0 1
6   0.35889076975758  1.38567247406431  -0.05749648840685
6   1.36233616395844  0.37370310514317  0.03861727355775
6   1.01878011471043  -1.01837830253850  0.05575590925567
6   -0.32234553879256  -1.40261955604805  -0.04446265320251
6   -1.36985286657030  -0.35723116294839  -0.03235795931980
6   -1.01001808531684  0.99658918456031  0.06399006752529
1   0.41059573387190  2.52971890823615  -0.60168114895439
1   -1.81767336840134  1.72300339284050  0.18129009990474
1   -2.34082436686760  -0.68321392408779  0.25753036179759
1   -0.72688511116644  -2.38866782805854  -0.16803344952745
1   1.66475374918634  -1.64134144033102  -0.30891044544619
1   2.39456165104384  0.67229150130517  0.31116320696186





