%nproc=4
%Mem=2Gb
# TD=(NStates=1) B3LYP/6-31G(d,p)  

EMISPCT

0 1
6   0.33169511671025  1.32177883173757  -0.05480293969001
6   1.35183244806345  0.31020241763709  0.06313163204567
6   1.03049041775340  -0.99381055010914  0.01030143324080
6   -0.27901587706620  -1.32474819829246  -0.13022086421914
6   -1.40486202085679  -0.34676764874258  0.07571948295378
6   -1.02500760573349  1.02912769879948  0.02247517594212
1   0.53332846403661  2.23735994390080  -0.40358127328675
1   -1.72680877320088  1.73069277372124  0.13983886610897
1   -2.54543843644332  -0.74273845313986  0.08301822910447
1   -0.68890624180467  -2.45263727253311  -0.02001586512193
1   1.95368313166498  -1.53521073359232  0.32586643492135
1   2.40503930001911  0.82487074944416  0.05794269787335





