%nproc=4
%Mem=2Gb
# TD=(NStates=1) B3LYP/6-31G(d,p)  

EMISPCT

0 1
6   0.30875768268937  1.40697143185739  0.10976891137271
6   1.38076063222211  0.34951331536563  -0.14537724652612
6   1.00140410628039  -0.97841911312325  0.02273902723209
6   -0.33831938258858  -1.41916685389639  0.05206633814916
6   -1.41787941636071  -0.37773909412357  0.00200793952889
6   -0.96837528960278  1.00098470634881  -0.02395043394672
1   0.58464552842973  2.48854901794898  0.19739079188541
1   -1.67677647491069  1.79480981870684  -0.43016400356706
1   -2.31869016604131  -0.69948234879410  -0.12953217605633
1   -0.66270572388734  -2.48503037639931  -0.01403087633210
1   1.89877551377482  -1.51025930134746  -0.10686075451171
1   2.56632133155254  0.64565517766206  0.24737436251182





