%nproc=4
%Mem=2Gb
# TD=(NStates=1) B3LYP/6-31G(d,p)  

EMISPCT

0 1
6   0.35999488290849  1.47941665168909  0.04966292544302
6   1.36453791107732  0.38017847232261  -0.03440888263718
6   0.94473988456768  -1.01871704037802  -0.02818769489228
6   -0.30050091879023  -1.38832219786275  0.08720740930698
6   -1.39835816274830  -0.40051921608904  -0.01754419376357
6   -0.97002148368531  0.98326838858425  -0.04507178864285
1   0.79237566352228  2.45753847195320  0.02332135432418
1   -1.81361140460123  1.60172781812616  0.07212493009108
1   -2.53519554335622  -0.90419599076201  -0.21306924419128
1   -0.70147030481475  -2.44848830734842  0.09217619153619
1   1.87215998610909  -1.67581483705122  -0.34433985823801
1   2.35182626610593  0.57752579682035  0.21045303735166





