%nproc=4
%Mem=2Gb
# TD=(NStates=1) B3LYP/6-31G(d,p)  

EMISPCT

0 1
6   0.34372626905891  1.39681746073593  0.06619568618488
6   1.31011224452499  0.39653080536685  0.07637825368691
6   0.99961186400528  -1.03055132840429  -0.13910870505104
6   -0.32789521926208  -1.38342893017919  0.05829093645954
6   -1.32779582331367  -0.37081071345583  0.01868097422991
6   -0.99887395547643  0.96599976941610  -0.11228488208646
1   0.61181446740231  2.44853415102705  0.13499637106903
1   -1.73177244538253  1.75760177222840  -0.36740991771538
1   -2.32999364418517  -0.48114561488166  0.52542040398443
1   -0.65805522782082  -2.38653763857505  0.20395903784385
1   1.77378626978759  -1.79332256352289  -0.22733669226626
1   2.36115518883457  0.73658621852074  0.16561253029318





