%nproc=4
%Mem=2Gb
# TD=(NStates=1) B3LYP/6-31G(d,p)  

EMISPCT

0 1
6   0.32051461347339  1.30664800710263  -0.02712204864619
6   1.41176372054426  0.40766268246204  0.09612698093375
6   1.02867461398786  -0.98363278803714  -0.08884164911597
6   -0.37195437028351  -1.30436561021233  0.01000458979184
6   -1.40736379699592  -0.40911513452960  0.03521848817971
6   -0.99636011087650  0.97634996623787  -0.04211565906250
1   0.75544958407536  2.42360884330746  -0.05968639130594
1   -1.77063493240702  1.76274682260757  -0.09202244844143
1   -2.43879622056048  -0.78215885715452  0.23654669928086
1   -0.57815918134395  -2.24379682746649  0.09936483339825
1   1.77067561656413  -1.70506761170433  -0.19563077267376
1   2.43026856937799  0.62350175002281  0.24005115130662





