%nproc=4
%Mem=2Gb
# TD=(NStates=1) B3LYP/6-31G(d,p)  

EMISPCT

0 1
6   0.35824946361580  1.35372191256609  -0.05440508290965
6   1.42822762639762  0.37455275070129  -0.03526890154167
6   0.99477157371975  -0.98579936168118  0.05970659721260
6   -0.36315883483627  -1.35057219731648  -0.01159404990756
6   -1.38085926465076  -0.37928995386791  -0.03000020458624
6   -1.03780163376885  0.98488916430320  0.08175685368247
1   0.56345853462416  2.46515555398867  0.07660893195682
1   -1.85486656557918  1.65989869497939  -0.19867814631439
1   -2.48333359655859  -0.68979456364595  0.15661215304609
1   -0.45136671659882  -2.44765876184822  -0.32492687950026
1   1.68756980519456  -1.77631909329048  0.08154098309389
1   2.53180694924883  0.81068944540223  0.06949772773526





