%nproc=4
%Mem=2Gb
# TD=(NStates=1) B3LYP/6-31G(d,p)  

EMISPCT

0 1
6   0.34011475085108  1.40663253220991  0.03948455718901
6   1.38444301599437  0.36891810316783  -0.06576497217772
6   1.05562693830850  -0.98538136219581  -0.01637548980701
6   -0.34666102015185  -1.42662205126999  0.05234004956537
6   -1.39413739201881  -0.36976682397845  -0.04628117991681
6   -1.03078838474284  1.02938044107910  0.01358771813960
1   0.64335074601135  2.48023290729858  0.42510557966939
1   -1.75096665586558  1.72493150045632  -0.22832212463676
1   -2.55526664960287  -0.74696615918393  -0.14809280054891
1   -0.55941098878353  -2.53209731834769  0.29988477570995
1   1.66155627068196  -1.82357158798477  0.02655161429349
1   2.46810447821170  0.63473269598362  -0.06067704538364





