%nproc=4
%Mem=2Gb
# TD=(NStates=1) B3LYP/6-31G(d,p)  

EMISPCT

0 1
6   0.32046082373143  1.32464102202657  0.04075910536169
6   1.36503458375370  0.38851341964763  -0.04555795075139
6   1.02129498340711  -1.00084892527194  -0.00319105544169
6   -0.32879545651927  -1.35901067294761  -0.03418935532832
6   -1.41537726606727  -0.38372783862382  0.05142600588548
6   -0.99575444551472  1.01991212947390  -0.05347304904946
1   0.63793307815633  2.34558014821574  0.42735997083022
1   -1.76909820772758  1.90383422913141  -0.22210325662211
1   -2.42197829318879  -0.63503999828536  0.07911953809814
1   -0.38789970827592  -2.45164345809868  0.14086134728039
1   1.79033579162194  -1.79241660233808  0.24118745626378
1   2.54696625631474  0.78585529146040  -0.06200963175992





