%nproc=4
%Mem=2Gb
# TD=(NStates=1) B3LYP/6-31G(d,p)  

EMISPCT

0 1
6   0.34835076713288  1.41918495113440  0.06773254349544
6   1.41329783694367  0.37998410831531  -0.04542388481933
6   0.98654514156688  -0.99409683748655  0.05354900842080
6   -0.33185938034291  -1.36889409408207  0.01970985317588
6   -1.37702600905447  -0.37529665135625  -0.01428456695323
6   -1.02747584294119  0.96842954936975  -0.03059433367713
1   0.61867006536899  2.42655350839929  0.21791207479966
1   -1.84545550763146  1.54036005847903  -0.34493793252922
1   -2.52595996477341  -0.62976340634224  0.23017257236652
1   -0.58902435874791  -2.47404946826413  -0.31656201541378
1   1.68915574574309  -1.75145655801129  -0.06302159145105
1   2.49923663739555  0.54211737290844  -0.41631824288545





