%nproc=4
%Mem=2Gb
# TD=(NStates=1) B3LYP/6-31G(d,p)  

EMISPCT

0 1
6   0.37569457648453  1.42335861758668  -0.03620738598847
6   1.33233655928899  0.38895953278901  -0.04890487321618
6   1.03782082818978  -1.03640912764525  0.09155209321778
6   -0.33553226344330  -1.41765413263699  -0.08557061015731
6   -1.37333604789054  -0.38804180174012  0.00019472581679
6   -1.03830797463150  1.04232045932127  0.06468913267681
1   0.63681454413939  2.42053155406057  0.08050984802803
1   -1.92829220143609  1.81702630211066  0.01132214795790
1   -2.31365550275232  -0.74983100207473  0.02479410023992
1   -0.51899357602870  -2.43924025390854  -0.11001261961825
1   1.69476722065497  -1.65738024799510  0.35470600185396
1   2.44546869811265  0.47407384306119  -0.16662227057012





