%nproc=4
%Mem=2Gb
# TD=(NStates=1) B3LYP/6-31G(d,p)  

EMISPCT

0 1
6   0.35923264035748  1.42875898841342  -0.02463061765106
6   1.33559562126406  0.33724530071246  0.00261624064430
6   0.99383343476397  -0.97593951871645  0.06130616266042
6   -0.33984104617435  -1.39026429900525  -0.05963899628377
6   -1.35831974688909  -0.37511350000170  0.07453991243064
6   -0.98347411917048  0.95482260894244  -0.02329597219642
1   0.80446990991153  2.49037281241063  0.04953060466311
1   -1.97245446416102  1.73690200196967  -0.11004012496156
1   -2.36858483380343  -0.74360537016001  0.08309327680499
1   -0.80257908118161  -2.42269914739797  -0.33610931368934
1   1.85082260050774  -1.70819840309787  -0.04635818482091
1   2.39541439498319  0.86868123527526  -0.06238222925229





