%nproc=4
%Mem=2Gb
# TD=(NStates=1) B3LYP/6-31G(d,p)  

EMISPCT

0 1
6   0.31751717897505  1.38991385394461  -0.02085739823737
6   1.38123900705560  0.35468684101694  -0.03796160788394
6   1.02196433158465  -1.01297018313733  -0.00580780274904
6   -0.37062442364660  -1.34348020746064  0.06272780423211
6   -1.35215867080712  -0.42377174574419  -0.05907342738502
6   -1.02552526093256  1.00514452736707  0.07362835644715
1   0.74934286720049  2.56819447835197  0.22313224242154
1   -1.70799959159810  1.87209647976932  -0.14183142393796
1   -2.27465744740188  -0.75020126555779  -0.26261971153919
1   -0.59878245453448  -2.32871351418207  0.00583427061103
1   1.78523635212322  -1.60098482313241  0.07303231118140
1   2.32082084921196  0.59760533631208  -0.07052265586332





