%nproc=4
%Mem=2Gb
# TD=(NStates=1) B3LYP/6-31G(d,p)  

EMISPCT

0 1
6   0.35951669693646  1.31556026437216  -0.00302152183219
6   1.33906926288870  0.36418382726836  -0.09731547652187
6   1.02228474755061  -0.98645179263389  0.08812678607593
6   -0.32403333369979  -1.38615161153052  0.01553620322285
6   -1.33323068794224  -0.34025593685790  -0.03920770023135
6   -1.06413135037872  1.03514878166360  0.03836425753341
1   0.67484435353764  2.35267516153145  0.20595738946779
1   -1.79987568192139  1.78949821677865  0.10114487744205
1   -2.33161400715980  -0.70220026610441  -0.24848509081976
1   -0.56303796434829  -2.48068637866474  -0.01239782909075
1   1.77532757959359  -1.78908617943385  -0.11337340012593
1   2.25871739876033  0.81978123706433  0.03321522708710





