%nproc=4
%Mem=2Gb
# TD=(NStates=1) B3LYP/6-31G(d,p)  

EMISPCT

0 1
6   0.34444222609174  1.36662565995367  0.14047875938127
6   1.34688829062269  0.35422295134212  -0.15098939781016
6   0.97687881707987  -0.95024350738894  0.03778150435413
6   -0.29481509930557  -1.41596479226503  0.02502768410188
6   -1.36152693008624  -0.33941319654290  -0.06887145548617
6   -1.00599714999740  0.97807746337886  -0.00448841466217
1   0.56541441070310  2.60987014418891  0.08027439524980
1   -1.69666164369478  1.73257677816463  -0.05315566760564
1   -2.48055302054952  -0.63968032919351  -0.03539183121764
1   -0.57445337636194  -2.54577215546595  0.11666371394938
1   1.61895221256981  -1.73769484023842  0.39424510590403
1   2.51412123071439  0.65736529913645  -0.21480834128999





