%nproc=4
%Mem=2Gb
# TD=(NStates=1) B3LYP/6-31G(d,p)  

EMISPCT

0 1
6   0.35688668217603  1.41870398663961  -0.00180331407677
6   1.40586155779053  0.37279765546336  -0.00657557549489
6   1.02801218450226  -1.02579129823066  -0.02133536983722
6   -0.38871388006549  -1.35078482250606  0.00814020832267
6   -1.36416641491319  -0.41997601472545  -0.00460895714702
6   -1.03489470900078  0.99578508463066  0.02722723379406
1   0.62387390806604  2.39416168258253  -0.08457709202865
1   -1.78630407080461  1.78303577739711  -0.08717147620649
1   -2.51353579078320  -0.61591428833556  0.00921958641274
1   -0.50526380467494  -2.55667126994750  -0.12078614922722
1   1.76629923245068  -1.65834114815987  0.21651396385556
1   2.33268470456234  0.75109641939346  0.05251941786255





