%nproc=4
%Mem=2Gb
# TD=(NStates=1) B3LYP/6-31G(d,p)  

EMISPCT

0 1
6   0.39578603838143  1.38553682589412  -0.05770055687757
6   1.44865785781037  0.42249109725185  0.06334028143805
6   0.93492983092635  -0.97589049076762  -0.07945076676453
6   -0.34679990948491  -1.37338891764678  0.08472790900066
6   -1.45699739041972  -0.42166951446223  -0.08970869165975
6   -0.98847886348418  0.96384629471530  0.07445006408570
1   0.58645386129631  2.45570053124815  -0.31061166982445
1   -1.69843145567751  1.72558018735661  0.30035130811975
1   -2.50134394797015  -0.75823622937662  -0.21392117262403
1   -0.43039626156996  -2.50421355434168  0.19266651286726
1   1.76189622288455  -1.49476932107423  -0.12931779824444
1   2.40713772551325  0.58621026546431  0.22015955033095





