%nproc=4
%Mem=2Gb
# TD=(NStates=1) B3LYP/6-31G(d,p)  

EMISPCT

0 1
6   0.36782724466822  1.38534529060756  0.09915341987401
6   1.38575207359116  0.39318141028787  -0.06708025664187
6   1.02327741088441  -0.99385062674735  0.02801240995614
6   -0.33765540926757  -1.40000848228629  -0.01827072002664
6   -1.37274778002592  -0.38101436422494  -0.04811999242432
6   -1.03408843847974  0.99310797239057  0.01989572458110
1   0.79616825676345  2.52237040647336  -0.11566150571673
1   -1.99227080147023  1.69558869311351  -0.21832296960439
1   -2.42720081231786  -0.61574368011857  0.04504087164697
1   -0.72027655804759  -2.48581789997840  0.21538171829866
1   1.69687782992245  -1.73818007921976  0.15316514374596
1   2.27392134971113  0.62885402424960  -0.26535192438879





