%nproc=4
%Mem=2Gb
# TD=(NStates=1) B3LYP/6-31G(d,p)  

EMISPCT

0 1
6   0.35330043448929  1.36154224241266  0.05156267232093
6   1.38645365772317  0.35658422149101  -0.00481341934995
6   1.01358164034108  -0.96072766664528  0.00569794380826
6   -0.36091414764070  -1.38566278625400  0.02267636181591
6   -1.36937997162089  -0.41004784611848  0.02252536734288
6   -1.03887725230611  0.99411086167855  -0.05440359361182
1   0.74749481896903  2.55641122946008  -0.12011708487801
1   -1.67580236321554  1.79368644572469  -0.10589997603337
1   -2.44005157192269  -0.39699414837208  0.17636070153486
1   -0.58624339193681  -2.55545832467970  -0.38765756910746
1   1.87056505788100  -1.66836671799238  -0.05123646240288
1   2.23720250586212  0.78962795439302  -0.10247981757136





