%nproc=4
%Mem=2Gb
# TD=(NStates=1) B3LYP/6-31G(d,p)  

EMISPCT

0 1
6   0.37352722524838  1.38692002441462  -0.14284877173447
6   1.38260961075702  0.34307503665040  0.06453157302648
6   1.00534541580293  -1.00370305731851  0.03754174600573
6   -0.32392617300006  -1.39651327136539  0.02474361006808
6   -1.37858866074574  -0.35948068123382  -0.03076386161488
6   -1.07148762107773  1.02016651698921  0.07959532607259
1   0.77021674323020  2.40738566217190  -0.16815615113439
1   -1.83288526488085  1.72577852718001  0.41930525087012
1   -2.30903576692236  -0.81532344679057  -0.23467533010610
1   -0.70989082720016  -2.38056656889948  -0.29497191652563
1   1.91807054753846  -1.78672482880548  -0.27758095385392
1   2.29428425845364  0.97462736082491  0.10780693582840





