%nproc=4
%Mem=2Gb
# TD=(NStates=1) B3LYP/6-31G(d,p)  

EMISPCT

0 1
6   0.35448850234780  1.37337915484428  -0.07480601874162
6   1.41978936357485  0.37176440563399  0.06976344830795
6   0.98862017352107  -0.95794984752553  -0.02495496881527
6   -0.38461657877287  -1.33790315701785  0.03264982214486
6   -1.40634114520925  -0.38962713249958  -0.03986743121585
6   -0.94919337968577  0.90631260297469  0.01497110875716
1   0.47327209689582  2.54640669964956  -0.05927687894905
1   -1.88589567959618  1.68287430263250  0.22676991432481
1   -2.45878200432686  -0.59738076969038  0.26563765304139
1   -0.66747486109273  -2.50489629826185  -0.14475195801780
1   1.75329481604360  -1.56280462925476  -0.14779137100999
1   2.52016272939688  0.78457448986861  0.16340384796822





