%nproc=4
%Mem=2Gb
# TD=(NStates=1) B3LYP/6-31G(d,p)  

EMISPCT

0 1
6   0.31706003611977  1.41198482113005  0.02943618675563
6   1.37080082432910  0.43161823167591  -0.09994407061237
6   0.94686230909211  -1.04775026448263  0.04901332872333
6   -0.31708867186712  -1.40640985759760  0.00068295041858
6   -1.32804892933477  -0.41091665679922  0.00303704666232
6   -0.97503663089496  1.00906193570900  -0.00956887905617
1   0.66822506449716  2.37469738296092  0.33092186748655
1   -1.76583504307954  1.75700014292796  -0.00916593172782
1   -2.35560052825968  -0.64194046200313  -0.17355451565927
1   -0.79700979855631  -2.38380776347377  0.09488032866603
1   1.68786408468618  -1.76307851627019  0.05469609603235
1   2.39390063999281  0.77477545712289  0.07590512902090





