%nproc=4
%Mem=2Gb
# TD=(NStates=1) B3LYP/6-31G(d,p)  

EMISPCT

0 1
6   0.34486167835863  1.37321596508793  -0.02675441612374
6   1.33894592587254  0.41156260678191  0.01478013544452
6   1.02178584867157  -0.99522712619934  -0.01442611035301
6   -0.34918102569075  -1.36888463790753  -0.01606586574283
6   -1.32832853667609  -0.37881195035296  -0.01763052953560
6   -1.00973158015074  0.98200984337070  -0.00583571067169
1   0.64140040237315  2.44851135977984  -0.08064968477166
1   -1.82422771261141  1.86873743994740  0.42088379313835
1   -2.39198343851669  -0.78451646422506  0.04479250466276
1   -0.63395073866265  -2.41695663855648  0.21607884227243
1   1.65773926711257  -1.87935118147818  0.10091758044498
1   2.34723800688472  0.47462630165661  0.19904375634538





