%nproc=4
%Mem=2Gb
# TD=(NStates=1) B3LYP/6-31G(d,p)  

EMISPCT

0 1
6   0.34419715817655  1.42233419597870  0.03791171358473
6   1.42688992650967  0.36987472961172  -0.05421967887536
6   1.03664351933384  -0.99989483101981  0.06227510623542
6   -0.36897030390423  -1.33733971148424  -0.08608464448322
6   -1.41789074672305  -0.38605556007539  -0.01145645854434
6   -1.00067648130219  0.95964626566585  0.00649343899723
1   0.62366041351796  2.38120443220624  -0.12132764662265
1   -1.81565403822032  1.48621649911879  0.15773740744603
1   -2.41774226119425  -0.79214062238248  0.16878611361860
1   -0.75490475722101  -2.41057962812570  0.18411620754849
1   1.71454807406780  -1.64280516696083  0.28254868011489
1   2.40585104610333  0.62795792776500  -0.05577094660310





