%nproc=4
%Mem=2Gb
# TD=(NStates=1) B3LYP/6-31G(d,p)  

EMISPCT

0 1
6   0.32442565010910  1.41801847054495  0.01023470370568
6   1.38321679464468  0.38441399804558  -0.01763546265881
6   1.01240663717463  -1.05059054351819  0.00005867561667
6   -0.28143027500522  -1.38831195993776  0.04503944983447
6   -1.35494452655880  -0.37347999507762  -0.01805356836827
6   -1.07978370055901  0.99461639445218  -0.04005645935600
1   0.67818853700996  2.61616637044319  -0.05491974698803
1   -1.66534765437585  1.78352978925192  0.24249031676312
1   -2.51987682150498  -0.53873926415815  0.23106442198592
1   -0.71746940819185  -2.38346441896290  -0.34068464639215
1   1.67986033369341  -1.98723136853358  0.03306281795203
1   2.49209695472376  0.66981739868345  0.16794920677140





