%nproc=4
%Mem=2Gb
# TD=(NStates=1) B3LYP/6-31G(d,p)  

EMISPCT

0 1
6   0.35463882849662  1.40161691253360  -0.00820286185190
6   1.31192253314954  0.33104196009850  0.02789837380621
6   1.02972398258827  -1.00983379508796  -0.04154708420120
6   -0.32682603011672  -1.41577579771167  0.05397366407656
6   -1.30063779321352  -0.40958860539905  -0.00189045386707
6   -1.08313130686135  1.10310461115308  -0.02110735848298
1   0.67709095132066  2.31011809481991  0.12514558504600
1   -1.81887288534798  1.79391629666803  -0.04555934716900
1   -2.38401794999166  -0.54109970358561  -0.02397262837463
1   -0.51781362017201  -2.54288632218122  -0.05115777483865
1   1.74099646144063  -1.68196936918569  -0.13966351006875
1   2.42710054613300  0.68327280521254  0.01049852251694





