%nproc=4
%Mem=2Gb
# TD=(NStates=1) B3LYP/6-31G(d,p)  

EMISPCT

0 1
6   0.31749579907230  1.34856112502824  -0.04662586114713
6   1.33968519450372  0.37120537530249  0.10164440252725
6   0.98825704059935  -1.05449160782680  -0.07844213341793
6   -0.28041097847809  -1.34152618339112  0.02357219818138
6   -1.33857542995155  -0.38248882114161  -0.03742018891978
6   -1.05251793844609  1.01912146108953  0.05287113005247
1   0.79953345740452  2.44924613081822  -0.13636291946701
1   -1.77733700360811  1.83933620227579  -0.16370532739405
1   -2.31269770791807  -0.46782318664441  -0.00845009669916
1   -0.49034858463101  -2.35190114048748  0.32957336783429
1   1.75856348557512  -1.77689802737498  -0.24255180613932
1   2.30201240437721  0.77728202756910  0.00829230242302





