%nproc=4
%Mem=2Gb
# TD=(NStates=1) B3LYP/6-31G(d,p)  

EMISPCT

0 1
6   0.34885843771360  1.44808450982778  0.03443537606397
6   1.38319591484858  0.35491204755028  0.03474435107915
6   0.99676995639459  -1.03615245344471  -0.03445856702714
6   -0.40097524632658  -1.36917490089907  -0.00673573140465
6   -1.30831461830117  -0.37852268790227  0.04477974104851
6   -1.03560404724331  0.98118666977055  -0.01167232747655
1   0.44387332497542  2.48436773694527  -0.08636468677225
1   -1.74680188109854  1.72750105189839  -0.45260614694046
1   -2.31747262109082  -0.77822312812134  -0.16375850231008
1   -0.45345969384999  -2.43695615033301  0.26390515977042
1   1.74509877944435  -1.85169542184786  -0.38089117361675
1   2.48147070817335  0.84572188281668  -0.01523082800258





