%nproc=4
%Mem=2Gb
# TD=(NStates=1) B3LYP/6-31G(d,p)  

EMISPCT

0 1
6   0.33967662607726  1.39907515767324  0.00155639594168
6   1.38955739087167  0.43199049334032  0.04066088541585
6   1.04426393909407  -1.05812598473156  -0.08311703494170
6   -0.36082015330480  -1.43647234635281  0.09101118519045
6   -1.35577612428782  -0.37315535348492  -0.06854160413263
6   -1.05106417044125  1.03491612585913  -0.00365713414930
1   0.49627519445069  2.39277941472800  0.25189424553134
1   -1.76791455752149  1.87559915669885  -0.06422587172581
1   -2.34736754444707  -0.69331295230318  0.11752547261486
1   -0.79256796890983  -2.46965096471489  0.14929441683620
1   1.82147387853391  -1.67394867931861  -0.03773835144233
1   2.54636296384063  0.57689989823552  -0.11490072058047





