%nproc=4
%Mem=2Gb
# TD=(NStates=1) B3LYP/6-31G(d,p)  

EMISPCT

0 1
6   0.37382934845643  1.38443712858189  0.06121064447110
6   1.34606081349449  0.40063022646314  -0.03035169877238
6   0.99569353066640  -1.05199396472239  0.03326456093033
6   -0.31610058034564  -1.35618129606549  -0.04356316942369
6   -1.38629644023746  -0.40654494386021  -0.01253000329343
6   -1.06594960922569  1.03143915832024  0.00404144980927
1   0.74650433562818  2.31220988347749  -0.18069431450438
1   -1.70329097886864  1.80187416634189  -0.10870465013375
1   -2.33307486585809  -0.63026556882335  0.19549695904087
1   -0.50889444480543  -2.44195975213537  -0.06843373919271
1   1.92688611732900  -1.78926965477242  0.25680680538958
1   2.46402156659300  0.78554462384733  -0.25946277145595





