%nproc=4
%Mem=2Gb
# TD=(NStates=1) B3LYP/6-31G(d,p)  

EMISPCT

0 1
6   0.35329430245646  1.40533841419000  0.02709824828838
6   1.35715244827408  0.39919136184842  0.03353846607532
6   1.01253539139492  -0.99462915353365  -0.02531859338458
6   -0.35833881396377  -1.42318203336854  0.01899191273049
6   -1.37440328095625  -0.40651172726722  -0.00549231885737
6   -1.00878726283429  0.98943995741815  0.01490024952540
1   0.83693372647409  2.47196728913548  -0.36356798619150
1   -1.56211868677715  1.95966039509516  -0.12264195342208
1   -2.39816846443246  -0.80269461593060  -0.22195530242054
1   -0.54823609266315  -2.35350757393664  0.18006001702035
1   1.59816793875218  -1.66108247949683  -0.35717109455482
1   2.27523945906620  0.74778727681424  0.01445347307411





