%nproc=4
%Mem=2Gb
# TD=(NStates=1) B3LYP/6-31G(d,p)  

EMISPCT

0 1
6   0.37626137662607  1.36827596086784  0.04980478026657
6   1.36674535330365  0.37252640622465  -0.02549417108758
6   0.97595080538320  -0.95557658988162  0.01660691760971
6   -0.34146182476348  -1.36173773129792  0.04099486021188
6   -1.31238693700711  -0.41497115437564  -0.02229439239564
6   -1.03739843050365  1.01876868802187  -0.02021805121328
1   0.55456372794538  2.29594089997761  0.05328586683904
1   -1.83506966980717  1.61974235926043  0.07617117114969
1   -2.49447915873351  -0.68178684035192  -0.28383333898262
1   -0.70537048573855  -2.46817427922560  0.05417191540214
1   1.64024379864254  -1.79471008903900  -0.11751065886088
1   2.49365237732117  0.70097494268492  -0.32076151523341





