%nproc=4
%Mem=2Gb
# TD=(NStates=1) B3LYP/6-31G(d,p)  

EMISPCT

0 1
6   0.35487034672643  1.34582035972688  0.11485422607683
6   1.40494028906549  0.41337501409415  -0.08498509828234
6   1.04572262329498  -0.98562046948545  0.00870039815606
6   -0.39368485145956  -1.35071320990908  0.05146661706968
6   -1.42180898606206  -0.41228882123205  -0.03538410508719
6   -0.99684869192073  0.97191674143649  -0.06832452721010
1   0.71050624796077  2.46136397019897  0.14039738559650
1   -1.64045798037944  1.74510797411410  -0.08045523980266
1   -2.54697859104751  -0.77978047222923  0.13039105404476
1   -0.75418576466063  -2.45572883978446  0.13587755503524
1   1.76050375439710  -1.63523307683636  -0.17435224286389
1   2.55954105554342  0.86508858313272  0.03498817477669





