%nproc=4
%Mem=2Gb
# TD=(NStates=1) B3LYP/6-31G(d,p)  

EMISPCT

0 1
6   0.33990752819507  1.35512234879494  0.04214194436989
6   1.37904424580617  0.36074890487873  0.01863044712849
6   1.00370776081596  -0.97327850638535  0.05126359069149
6   -0.40042966031464  -1.33425120979571  -0.09737490662495
6   -1.30651357026071  -0.40138097513257  0.02446067404928
6   -1.00595367022709  0.97062098186393  -0.03879357183512
1   0.67426877498132  2.39207885875392  -0.09571426279360
1   -2.08060496660152  1.77227971144435  0.03038085554004
1   -2.33759909449766  -0.52063378715777  0.15598690020316
1   -0.47273269377956  -2.40878569962972  0.31194678940893
1   1.76531367203048  -1.73675693119004  -0.09618670986936
1   2.30559232698332  0.73202907464929  -0.31090933546983





