%nproc=4
%Mem=2Gb
# TD=(NStates=1) B3LYP/6-31G(d,p)  

EMISPCT

0 1
6   0.38416674211234  1.36456848724420  0.04535250161718
6   1.39364698797383  0.37356256011079  -0.04933066506211
6   0.97347706060222  -0.93876724333773  -0.02257932955703
6   -0.36876759773451  -1.39495418701901  0.03840797702900
6   -1.35513806199014  -0.37422675377206  -0.00212635165833
6   -1.03777724775330  0.99134295120533  -0.03638356912951
1   0.49565367537778  2.45384731080650  0.26621743853166
1   -1.77182051351937  1.72159674966199  -0.00790012607077
1   -2.28397726514204  -0.80304075702550  -0.11021969348100
1   -0.55584651751648  -2.49913441139399  0.10071643889319
1   1.75763675709964  -1.70219316793997  0.12756942263006
1   2.47050163548793  0.59928772919282  -0.01204851143884





