%nproc=4
%Mem=2Gb
# TD=(NStates=1) B3LYP/6-31G(d,p)  

EMISPCT

0 1
6   0.29590049599922  1.29595171053343  -0.01947522931264
6   1.40899682044014  0.35415621133029  0.03037954071871
6   1.03126218170731  -0.97148341108905  0.00268451105820
6   -0.33459470145964  -1.28445883443685  -0.00930632610745
6   -1.37950709131245  -0.38374261519869  0.02809140625018
6   -1.04238072784431  0.99850986811050  -0.02387926081398
1   0.70281002735415  2.29754680049076  -0.00879384218109
1   -1.86877278349582  1.78347045254821  0.05259145123454
1   -2.50810760169154  -0.75285917174294  0.14937805568991
1   -0.61903178954606  -2.26693262515018  -0.31505384879801
1   1.87901826668436  -1.63044576619197  0.11235271968763
1   2.62529121219779  0.48396483780969  -0.10657864013774





