%nproc=4
%Mem=2Gb
# TD=(NStates=1) B3LYP/6-31G(d,p)  

EMISPCT

0 1
6   0.37216221486895  1.38645329716449  0.02791667885018
6   1.44441677249868  0.42314476514946  0.00349590797144
6   1.02995117232837  -1.02229490091081  0.01889625131053
6   -0.35884046936439  -1.37633048085176  -0.00621254625956
6   -1.41465112307147  -0.36777191843835  -0.00284318243469
6   -1.09245743105142  0.96402871666594  -0.03485861975286
1   0.78453632060031  2.51036725451745  -0.06800906185821
1   -1.83157173519982  1.90119465796051  0.03201621673614
1   -2.35583591633435  -0.70836279547155  0.33018819587356
1   -0.58328207519551  -2.57166141942267  -0.32764095251445
1   1.79925309493310  -1.80208664695437  0.14150547426713
1   2.40414223905324  0.60290318557911  -0.19546189819979





