%nproc=4
%Mem=2Gb
# TD=(NStates=1) B3LYP/6-31G(d,p)  

EMISPCT

0 1
6   0.35914485205865  1.41287600358389  0.08244215080880
6   1.35407741506618  0.35971001921648  -0.09905716411067
6   1.01665321657785  -0.99054516333887  0.02777443644461
6   -0.33323843320006  -1.36468568149813  0.02795986816913
6   -1.44271855381163  -0.35873655862657  0.01468783731058
6   -0.96239997018404  0.93151778674603  -0.02761184849632
1   0.57182802229843  2.49342593090290  0.20403662354396
1   -1.73119078581237  1.84192969047630  -0.23531317246023
1   -2.52174601804163  -0.73045772404013  -0.24118560828546
1   -0.47148482478786  -2.44714888852568  -0.01582298918456
1   1.93665680810624  -1.63679628490981  0.00285001226745
1   2.31420018901659  0.60528687276975  -0.07257769427181





