%nproc=4
%Mem=2Gb
# TD=(NStates=1) B3LYP/6-31G(d,p)  

EMISPCT

0 1
6   0.38852296432267  1.42143335385150  0.07038947377423
6   1.33462272304799  0.37568199139015  0.04409348801707
6   1.02409735787733  -0.97115391642395  -0.03334696914365
6   -0.36593076135145  -1.35632686326601  0.03878303794950
6   -1.37501970860848  -0.39430272439814  0.01984379073117
6   -0.99928642534726  0.93596463949771  -0.08803728263498
1   0.51949037437190  2.50524734087401  -0.04705603746060
1   -1.87955397466542  1.71028528797218  -0.06658161482177
1   -2.36834723335589  -0.49517491645646  -0.03876316023694
1   -0.51037467642213  -2.48568222763997  0.09784668179536
1   1.75981571894519  -1.94683550411450  -0.39148981124289
1   2.39859449858466  0.57523852168125  -0.26088242017535





