%nproc=4
%Mem=2Gb
# TD=(NStates=1) B3LYP/6-31G(d,p)  

EMISPCT

0 1
6   0.35130277772879  1.38796220283026  0.03864630062411
6   1.34821861924405  0.40194836834117  -0.01015286799816
6   1.03274276110104  -1.00490901972266  -0.03899863325576
6   -0.37644748109711  -1.35494795059829  0.03220311603140
6   -1.30813195858744  -0.43072919417325  0.00034908817660
6   -1.03207977150062  0.98994642338038  -0.03753866447366
1   0.54063273522170  2.53618495018575  0.15973439096179
1   -1.63022886136256  1.86440269035306  -0.14532218766715
1   -2.49939828460976  -0.60069294212509  0.01677463911640
1   -0.67628100874376  -2.37512943225998  0.22676790063260
1   1.71457970796910  -1.89601767576228  -0.15695536786690
1   2.35080434951418  0.56946622399488  0.11070932372788





