%nproc=4
%Mem=2Gb
# TD=(NStates=1) B3LYP/6-31G(d,p)  

EMISPCT

0 1
6   0.31148247721265  1.38365140872018  0.05732512380557
6   1.37514992637686  0.38704416576291  -0.01517810438948
6   0.98360855253945  -1.00077047482283  -0.07361174757551
6   -0.35212767442658  -1.36696697922668  0.07120500124598
6   -1.30841807819209  -0.37591812582063  -0.01807314516670
6   -1.00049697381719  0.99124071205035  -0.00485528399283
1   0.49390751630620  2.50472881007708  -0.13687233556731
1   -1.84681768871324  1.77478037269733  -0.09885093939131
1   -2.43631099704479  -0.73015738345535  -0.19169737599374
1   -0.50615919947610  -2.41912675963049  0.03652295551861
1   1.65799711194757  -1.87165869289516  0.10538211054154
1   2.52341052831540  0.51314779230728  0.05574305122284





