%nproc=4
%Mem=2Gb
# TD=(NStates=1) B3LYP/6-31G(d,p)  

EMISPCT

0 1
6   0.36216318692057  1.34973031702563  -0.07461556482219
6   1.35306084122184  0.38224980899176  0.08621754368001
6   1.05773989703550  -0.99755188321549  -0.10760459228098
6   -0.36309253735971  -1.30868619148367  0.01777876546499
6   -1.40841987372597  -0.41573911457192  0.01411213718363
6   -1.01033000637799  0.97682819348919  0.04578349699912
1   0.74993292479293  2.42998218943802  -0.25527944376252
1   -1.82893356133013  1.94586014960084  0.03259550523438
1   -2.55881437823776  -0.73874323146756  -0.16222084715695
1   -0.44427262529955  -2.35901166857934  0.20668146586468
1   1.82863166682130  -1.71749885253565  -0.00630697919919
1   2.33532438853419  0.60094248516733  0.43500522061704





