%nproc=4
%Mem=2Gb
# TD=(NStates=1) B3LYP/6-31G(d,p)  

EMISPCT

0 1
6   0.36519775570870  1.38758688655581  -0.14450705842985
6   1.34762921470977  0.36474373296652  0.02240301487768
6   1.05098712327403  -1.00464852733136  0.09056331546915
6   -0.34437363185323  -1.41496763412614  -0.12853891576296
6   -1.38622967152772  -0.34417335070605  0.07106282740154
6   -1.02183580179386  1.01806476977217  0.11756781417846
1   0.54192662566790  2.34339283717384  -0.25262222877677
1   -1.84688686633937  1.82238753680148  -0.23255363930164
1   -2.34206939253337  -0.78805593167430  0.13732499404340
1   -0.69374004404532  -2.50375607660506  -0.47290958197658
1   1.89606571632640  -1.71372041067678  0.08943331188430
1   2.33422651573127  0.76457906040805  0.34111950842898





