%nproc=4
%Mem=2Gb
# TD=(NStates=1) B3LYP/6-31G(d,p)  

EMISPCT

0 1
6   0.33312217235559  1.37954083838437  -0.04156335492554
6   1.32378000900872  0.38859549510130  0.12765781069786
6   1.07673785976770  -0.99244999642974  -0.10240280207248
6   -0.36937809077588  -1.39117712908952  0.03522605663525
6   -1.39981664760396  -0.37791285757765  0.10565507120747
6   -0.99401992882102  1.00518248226370  -0.06844174183377
1   0.77967700906259  2.48724566627824  -0.18615919354803
1   -1.71787615960021  1.90334632468823  -0.04988032155373
1   -2.39410367475393  -0.82193145159164  -0.16453822144628
1   -0.67668421038287  -2.45808871589697  -0.24112550233771
1   1.98632682133696  -1.80062708938569  -0.26349890708881
1   2.38734021695194  0.59185404417937  0.13806726995437





