%nproc=4
%Mem=2Gb
# TD=(NStates=1) B3LYP/6-31G(d,p)  

EMISPCT

0 1
6   0.34400847733846  1.40911365788078  0.03693359221531
6   1.30299981459248  0.40389685335676  -0.04344732137536
6   1.01582307622942  -1.02137820567625  0.01756562427027
6   -0.36108786906604  -1.46353393891403  -0.01136386666318
6   -1.28486195525329  -0.38249365644569  -0.02762721706871
6   -0.99756810108589  1.03269397106103  0.05304886845683
1   0.63486910156189  2.49446349496953  -0.31000286100819
1   -1.96686864497006  1.71933848914788  -0.20859677210261
1   -2.28810351696918  -0.54577953737893  0.02999349946884
1   -0.82402599269696  -2.37070626292488  -0.02237270696832
1   1.77962966773158  -1.87514823844354  0.05998204624895
1   2.47644559728666  0.79483381962756  0.10782050328093





