%nproc=4
%Mem=2Gb
# TD=(NStates=1) B3LYP/6-31G(d,p)  

EMISPCT

0 1
6   0.34326979446847  1.41707943822792  0.02114581969564
6   1.45215467205094  0.35086685685349  0.00093984557684
6   1.01998313475345  -1.03524883375676  0.03240421872360
6   -0.31756270944266  -1.35694778511472  -0.05728368528627
6   -1.39239927824699  -0.37836791816424  0.06484304750385
6   -1.08248863529083  0.98528314168395  -0.07398838075825
1   0.70188231596057  2.45884668280916  -0.10276275832154
1   -1.91627348162135  1.81526481331470  0.06529422647752
1   -2.63208323046248  -0.78674404242522  0.30322966578464
1   -0.59175769106963  -2.31785717048307  -0.17874259368478
1   1.64409879898119  -1.78879935125730  -0.05484817133759
1   2.48562078884825  0.78269378261664  0.13098713652441





