%nproc=4
%Mem=2Gb
# TD=(NStates=1) B3LYP/6-31G(d,p)  

EMISPCT

0 1
6   0.34904147406825  1.41183471951942  0.01533784301864
6   1.29435350213956  0.34025802569495  -0.05140136597426
6   1.09860753659955  -1.04220981568374  0.07010252350538
6   -0.32717056636624  -1.37924772262443  -0.02534786213504
6   -1.43645133688169  -0.39747794297405  -0.06447671134295
6   -1.02731892027698  1.07166763022585  0.01178765463759
1   0.60836662818419  2.31825989197187  -0.04065141217576
1   -1.71996589488159  1.71688962630462  0.44603439686700
1   -2.38471707673835  -0.57271529936380  0.02383162289522
1   -0.51043116392183  -2.42734498205168  0.19735366895459
1   2.04094690258641  -1.53908311260174  0.06597475852298
1   2.53350748149440  0.51306937233485  -0.09124881842528





