%nproc=4
%Mem=2Gb
# TD=(NStates=1) B3LYP/6-31G(d,p)  

EMISPCT

0 1
6   0.35939970905148  1.39053681710785  -0.07509534973591
6   1.37667525190900  0.42117559731790  -0.06354758713810
6   0.94674381174885  -1.03076247325887  0.11471469025280
6   -0.32008946025831  -1.40212562325782  -0.08721521922378
6   -1.37904852034365  -0.37360745432160  -0.06222051451799
6   -0.99103612155401  0.97169876007363  0.14435510036296
1   0.63737768946086  2.51398310314466  0.00932224529527
1   -1.67746891522832  1.70217506806986  0.03856752170111
1   -2.38387276632890  -0.74679498232690  0.07233591834318
1   -0.71288558702626  -2.38359705380108  -0.04494370065237
1   1.79690726922511  -1.61560124910996  0.37229720906564
1   2.43804210777035  0.79326864355725  -0.05113516708579





