%nproc=4
%Mem=2Gb
# TD=(NStates=1) B3LYP/6-31G(d,p)  

EMISPCT

0 1
6   0.32473832795376  1.37056224629217  -0.01305690648012
6   1.35293745568634  0.40942286640210  0.06142521414151
6   1.05409464091256  -0.98996499938901  -0.05247570407979
6   -0.35796935249419  -1.44314633827327  0.04725803038821
6   -1.36812281403208  -0.37907033103564  -0.03383079222415
6   -0.97637132327865  1.03858171719635  0.00788410154207
1   0.59564928146664  2.42668441414642  -0.04900516952569
1   -1.80841629398844  1.63260428549783  -0.13470465290489
1   -2.41820124450522  -0.59240074413252  0.05656725571717
1   -0.79314377664811  -2.46223703427370  0.21332709927779
1   1.72613974804983  -1.68557807204212  -0.41115978452581
1   2.40402093491231  0.58477946507696  0.08984402702903





