%nproc=4
%Mem=2Gb
# TD=(NStates=1) B3LYP/6-31G(d,p)  

EMISPCT

0 1
6   0.34250359670358  1.37592344978218  0.06550824762836
6   1.39422591579394  0.35803926116333  -0.09868303596948
6   1.04410543405109  -0.97363518247812  0.07509246194399
6   -0.31923936872582  -1.35525315577960  -0.03069011732962
6   -1.40563450000552  -0.39457690308806  -0.00498090397150
6   -1.05291420046624  1.03134867584700  0.00924822822947
1   0.50416833947880  2.26748943722909  0.01799058931413
1   -1.64483651727657  1.83157769790768  -0.07464397777922
1   -2.52850348749736  -0.77270666093656  -0.14322463857319
1   -0.60339951048115  -2.47797511768398  0.01587363190709
1   1.76698983619361  -1.83865400320788  0.13281096098749
1   2.45062240805196  0.53030639936320  -0.16058059978312





