%nproc=4
%Mem=2Gb
# TD=(NStates=1) B3LYP/6-31G(d,p)  

EMISPCT

0 1
6   0.33589841812651  1.42656420350226  -0.03466127362764
6   1.28476603407416  0.37858842739316  0.06720117399049
6   1.05850806528144  -1.01908625910154  0.00443959543041
6   -0.35514484058753  -1.44429886264316  -0.04439485132813
6   -1.36845109568524  -0.38102581927120  -0.00331821865891
6   -0.93568694679050  1.04574463728972  0.05134131704024
1   0.64871963359033  2.47210358987896  -0.18606730348192
1   -1.83658401057016  1.69188927713710  -0.28137251965110
1   -2.49482208879596  -0.58977839454507  0.12346955070745
1   -0.58294604518039  -2.62416620276065  0.11896229676313
1   1.83281867646642  -1.83406568358569  -0.23447008853911
1   2.23485890463674  0.80437136547377  -0.09550508803345





