%nproc=4
%Mem=2Gb
# TD=(NStates=1) B3LYP/6-31G(d,p)  

EMISPCT

0 1
6   0.31849022059958  1.39778938293375  -0.02678815214836
6   1.34859105970055  0.34532529450824  -0.07171701516110
6   1.04423314516502  -0.95908510767161  0.06398136963545
6   -0.36463663262492  -1.36076662743837  -0.03916507714862
6   -1.33939205459062  -0.38192368120729  -0.01538540423262
6   -1.03147167153911  0.96380597639291  0.08195227418200
1   0.77558162334392  2.44507428091029  -0.15904221877244
1   -1.65467548730862  1.85488905032809  0.14999806899206
1   -2.44522043352912  -0.72568902642071  -0.22920424005435
1   -0.62463808192877  -2.35045962481555  -0.09895973833233
1   1.79921791214598  -1.77243256987467  0.31438094553629
1   2.40267985261429  0.50971308501365  0.12015058256512





