%nproc=4
%Mem=2Gb
# TD=(NStates=1) B3LYP/6-31G(d,p)  

EMISPCT

0 1
6   0.39181967601401  1.38757977868899  0.02816290173057
6   1.40491254958297  0.42131256293208  0.02275580802461
6   1.00025942508082  -0.97419233469602  -0.09151049341619
6   -0.36500505748582  -1.44219725750668  0.09516998033331
6   -1.39356974166126  -0.38706568905342  -0.02048399712025
6   -1.03850179353672  0.98341440111097  -0.02940947851845
1   0.50026502653593  2.53807777535438  0.14172440886439
1   -1.66663731907280  1.83232932238976  -0.10241775081929
1   -2.38581634463151  -0.71560737195915  -0.09832930764181
1   -0.62968671389451  -2.42657481860531  0.06366270664521
1   1.69660424437524  -1.66095511036649  -0.04791117310385
1   2.50129725156757  0.55950411680570  -0.02076407140399





