%nproc=4
%Mem=2Gb
# TD=(NStates=1) B3LYP/6-31G(d,p)  

EMISPCT

0 1
6   0.40145953338385  1.39734851471440  0.06581668150870
6   1.33744901642220  0.38510549509862  -0.03922148803492
6   0.98957759893027  -0.95220896418712  0.02804510863510
6   -0.33607740864707  -1.38148529073362  -0.02077632953733
6   -1.44354941746297  -0.41205178391597  0.00897448515389
6   -0.95256794117266  0.95844832061728  -0.04188270073719
1   0.61760960896547  2.46157159194309  0.05907763373437
1   -1.59742263073593  1.63746323505039  0.00690044961944
1   -2.36852854632498  -0.71151791524822  -0.01069189292324
1   -0.66731058350278  -2.50188324070284  0.08907675549125
1   1.66114026011600  -1.63318840431989  0.07435286859217
1   2.41103455802252  0.81900684794714  -0.23178849335352





