%nproc=4
%Mem=2Gb
# TD=(NStates=1) B3LYP/6-31G(d,p)  

EMISPCT

0 1
6   0.31933722273540  1.33660563916643  -0.12665297366015
6   1.35340886636626  0.41399025672701  0.01143552202239
6   1.01790317709044  -0.97806148600774  0.09453130601356
6   -0.35479679076063  -1.41043016661116  -0.05344809474957
6   -1.32542773955287  -0.35023743362672  0.00609391643009
6   -0.96088260903175  0.96935071684085  0.07279443070813
1   0.41635011117202  2.50440601534183  -0.00770605742254
1   -1.82093105032244  1.77582555002415  0.27360734772752
1   -2.52252432457349  -0.49369307488905  -0.08967343733662
1   -0.83866955137776  -2.49958410530857  -0.24900708762182
1   1.81469006761402  -1.89145008840920  -0.10259581704014
1   2.43168024120792  0.76361621642062  0.11039159257960





