%nproc=4
%Mem=2Gb
# TD=(NStates=1) B3LYP/6-31G(d,p)  

EMISPCT

0 1
6   0.34650912063331  1.31095605341947  -0.03124355127355
6   1.41212727638694  0.39883133842092  0.08470074634196
6   1.05528552733152  -0.99870840406117  -0.07324910685769
6   -0.35040991955157  -1.37028754338353  0.02196582650436
6   -1.40344528941335  -0.40324808721799  0.00616761244145
6   -1.02840876688928  1.04817591297795  -0.01983524106642
1   0.53631257343625  2.36691077818800  -0.12488252801566
1   -1.89434244427115  1.80791303180747  0.10707672728735
1   -2.40394243445397  -0.66633224003082  0.09476896004752
1   -0.65217143870829  -2.36813574351266  0.05333256778755
1   1.68069236195257  -1.76202787895814  -0.08020693931160
1   2.38371442418985  0.75550402731655  0.10698130230673





