%nproc=4
%Mem=2Gb
# TD=(NStates=1) B3LYP/6-31G(d,p)  

EMISPCT

0 1
6   0.35307478937059  1.37681386061861  -0.09554096714175
6   1.30191975724562  0.33844111571930  0.11910981468591
6   1.06728643929487  -0.96311458222085  -0.07557834523968
6   -0.31880011405499  -1.44074685323787  0.02722526532320
6   -1.37863298359803  -0.34498899888143  0.00080349156179
6   -1.00969828125813  1.04209814194055  0.01298223141659
1   0.61431484390362  2.36333669787338  0.05787069415053
1   -1.87277096566119  1.62536875878144  -0.14637133266650
1   -2.54130655422040  -0.57763922775719  0.25645424965268
1   -0.52712660277137  -2.37554469062220  0.07502396112318
1   1.77529138996188  -1.75336343468253  -0.39425406411305
1   2.40761899641248  0.62566152858872  0.30157878690372





