%nproc=4
%Mem=2Gb
# TD=(NStates=1) B3LYP/6-31G(d,p)  

EMISPCT

0 1
6   0.35525806881611  1.38325428535338  -0.06938273255013
6   1.43515008566082  0.34885783687649  0.01191498125093
6   1.02490667461920  -0.96603127439880  0.09621814481623
6   -0.34573450416991  -1.40871436177602  -0.06256445797321
6   -1.39764946555705  -0.35438958407549  0.00841593182152
6   -1.05781983637593  0.98605128912152  0.05419554037279
1   0.43945114450359  2.41735876068821  -0.09584421081720
1   -1.75552778920377  1.84606613558285  0.16171268781173
1   -2.37004926852160  -0.69044018160949  -0.07154800471431
1   -0.63664460874903  -2.43476295857976  -0.30397421364522
1   1.74641268897077  -1.82716610016760  0.03913843677910
1   2.41096231015886  0.79873411804508  -0.25972660116866





