%nproc=4
%Mem=2Gb
# TD=(NStates=1) B3LYP/6-31G(d,p)  

EMISPCT

0 1
6   0.35150660243165  1.35476085644917  0.02554671831629
6   1.43457627137212  0.41172537349988  -0.05334920409469
6   1.02304695062325  -1.00964091250622  -0.02211003717793
6   -0.37538388580832  -1.37992158536519  0.00197821045521
6   -1.40302973914321  -0.41290257169791  -0.01204854766606
6   -1.02410455686590  1.01844612375542  0.03226552412392
1   0.52909998603068  2.38079682078606  0.13734109024933
1   -1.92011081636585  1.81942233172166  -0.11618641519561
1   -2.38402320830754  -0.69122020387677  -0.18467522410288
1   -0.83557881730279  -2.45733306634487  0.18679582844161
1   1.89498968682696  -1.64971024863879  0.37160626704925
1   2.64708983148372  0.78314523013017  -0.01608862051726





