%nproc=4
%Mem=2Gb
# TD=(NStates=1) B3LYP/6-31G(d,p)  

EMISPCT

0 1
6   0.35239134343789  1.30165842760062  0.07334083354404
6   1.38545148362185  0.37678743964079  -0.05585398487441
6   1.08990027911118  -0.96956708989347  -0.03956977426878
6   -0.37337231488017  -1.39139698735570  0.05710095330486
6   -1.38673407354495  -0.34838223075892  0.06059996632141
6   -1.07536905430086  1.02198874502741  -0.12650575277652
1   0.74409438873239  2.39528899240146  0.45454923392351
1   -1.73193353225480  1.77479762037741  0.02883423213839
1   -2.40003063755549  -0.73680299614549  -0.07053860537996
1   -0.61771753964010  -2.37839166828607  -0.16405168128819
1   1.75287693500819  -1.72336109880688  0.20812687888197
1   2.36598006810273  0.78213646232781  -0.03479802203401





