%nproc=4
%Mem=2Gb
# TD=(NStates=1) B3LYP/6-31G(d,p)  

EMISPCT

0 1
6   0.35759172599900  1.37454474801051  -0.03047934227217
6   1.36475875649601  0.41088579987536  -0.01020974636015
6   1.02694834365809  -0.98714410162150  0.01901712721334
6   -0.40431863795293  -1.35781539124674  -0.04106821166608
6   -1.37806116879927  -0.40445751771167  0.01971948045887
6   -0.93721684904079  0.97782858862212  0.05642242015947
1   0.58557305353267  2.35173712296520  0.07793195329700
1   -1.98638878676853  1.55808350049172  -0.35022799256870
1   -2.55990570597337  -0.72246281754637  0.01217249199370
1   -0.55310920452909  -2.30937624326040  -0.04783732617181
1   1.80944161240422  -1.68991128069253  0.10982473920757
1   2.37623063396360  0.62344698461092  0.01496852462064





