%nproc=4
%Mem=2Gb
# TD=(NStates=1) B3LYP/6-31G(d,p)  

EMISPCT

0 1
6   0.32860625798813  1.36357388770030  0.04692922962874
6   1.48270249243533  0.38958486014020  -0.05832253261739
6   0.97154653894403  -0.96429150185071  0.05636110073191
6   -0.35861264686606  -1.37073976106966  0.03392656616912
6   -1.38074121016727  -0.42605088366453  -0.07073782170013
6   -1.02675467243873  0.98455847244052  0.01783384099487
1   0.53808704386501  2.47870648429533  0.18061928368172
1   -1.73329756111124  1.88177550398548  -0.07551998910917
1   -2.48070676063984  -0.71319502958427  0.02274057304942
1   -0.66074564419773  -2.36670170613753  -0.07866183746307
1   1.62366569386297  -1.81898238318111  -0.00027686010612
1   2.48775497185240  0.77458354614142  -0.40411374055001





