%nproc=4
%Mem=2Gb
# TD=(NStates=1) B3LYP/6-31G(d,p)  

EMISPCT

0 1
6   0.36714134225719  1.40686390213627  -0.01528515039160
6   1.32626525182136  0.42565799106474  -0.05163229029440
6   1.01950701100371  -1.06331646243136  0.10413628884798
6   -0.31893437213287  -1.43433273294978  -0.05688149106491
6   -1.38001028735995  -0.35964632655404  -0.02757200985869
6   -1.02384248202503  1.01867045191437  0.06962588532153
1   0.78420569818684  2.54775991278942  -0.16773937962051
1   -1.88963367592448  1.74592545533432  0.08562916253291
1   -2.51718328393253  -0.60810601344023  0.05194536970495
1   -0.61053365542958  -2.60526932749471  -0.33967062222577
1   1.83742237454655  -1.69350096360907  0.29849237622383
1   2.53937466479865  0.69682214365972  -0.23468108493402





