%nproc=4
%Mem=2Gb
# TD=(NStates=1) B3LYP/6-31G(d,p)  

EMISPCT

0 1
6   0.40362849749900  1.32790266798945  -0.02740413073085
6   1.42883315034748  0.46629094538366  -0.00627713141425
6   1.00889061055632  -0.98859773336676  0.05131493707752
6   -0.38292952673964  -1.39692092581211  -0.06933983591341
6   -1.45867408674947  -0.38682427163662  0.02282115826464
6   -0.99825841812776  0.95188645307827  -0.01367531667799
1   0.61873203422575  2.36629437411725  0.09756506642297
1   -1.84070144541783  1.79321032772595  0.16360109801763
1   -2.45609220331291  -0.73296101374988  0.23175271056551
1   -0.63091407328596  -2.31076883357127  -0.05956403824437
1   1.82187701688590  -1.66874624614714  0.15867788879331
1   2.51536467551084  0.84770194715683  -0.01038569383231





