%nproc=4
%Mem=2Gb
# TD=(NStates=1) B3LYP/6-31G(d,p)  

EMISPCT

0 1
6   0.34409214682219  1.40724189816362  0.07761722779216
6   1.46629401112910  0.42648913838480  -0.02210846478812
6   0.96308460262491  -0.99589683498480  -0.00526980136116
6   -0.37633675120594  -1.48093219113898  0.00814978810459
6   -1.37966502912306  -0.43726256735029  0.03773474100339
6   -1.00688210115500  1.06077749516088  -0.07597035163591
1   0.64693830672282  2.39193053588236  0.12689499693585
1   -1.94331822247082  1.79283382888295  -0.14472490526981
1   -2.49815578393876  -0.67100351601874  -0.10618395332040
1   -0.59406314804504  -2.34740496635828  0.17498627889968
1   1.76993914104246  -1.79244439647675  -0.20517973934168
1   2.48691745157661  0.83307177028496  -0.12122957914137





