%nproc=4
%Mem=2Gb
# TD=(NStates=1) B3LYP/6-31G(d,p)  

EMISPCT

0 1
6   0.36854296317133  1.39053417282254  -0.07256987906330
6   1.38890379770296  0.38476328659378  0.03504861736750
6   1.02020321614028  -0.95001460076169  0.02480576758318
6   -0.37584789074197  -1.39235937856145  -0.07010761256389
6   -1.41699019927659  -0.38930114016976  0.06242065102474
6   -0.98418143847776  0.98172048732442  0.02148250150480
1   0.57632951572505  2.43325864004927  0.02708464775747
1   -1.78325158877708  1.68125516467020  -0.19845661192891
1   -2.42938816238953  -0.72186410979481  0.12000915894644
1   -0.47947599352994  -2.56772613685734  -0.05329740133841
1   1.63056423085366  -1.92483702206880  -0.14510529272846
1   2.49240432663628  0.81740111764144  0.23499420596717





