%nproc=4
%Mem=2Gb
# TD=(NStates=1) B3LYP/6-31G(d,p)  

EMISPCT

0 1
6   0.37412432374190  1.34447028560995  0.01546494355393
6   1.41669580623209  0.41079766702593  -0.03142261543540
6   1.06473878928746  -1.01381571726824  -0.00819991755745
6   -0.36087218042960  -1.37326617316102  0.01341621067358
6   -1.41414252443228  -0.36130698932971  0.01881821572355
6   -1.09126855905170  1.00623218460408  0.01196060299235
1   0.59150345405673  2.37259835427348  -0.07451994975253
1   -1.85881867378315  1.89859916165873  -0.05020756239544
1   -2.30447239429515  -0.79961920073032  -0.25602945473168
1   -0.53337249921649  -2.41035145727107  -0.07449162581856
1   1.72132288122565  -1.78682144607260  0.12064453866255
1   2.52373018205527  0.58686998379504  0.06074837471124





