%nproc=4
%Mem=2Gb
# TD=(NStates=1) B3LYP/6-31G(d,p)  

EMISPCT

0 1
6   0.33888488470779  1.37698137883867  -0.00846485547669
6   1.38172218680451  0.36676151187355  0.01037122890513
6   1.06102496902075  -0.96467603592811  0.03900534797833
6   -0.34608109710192  -1.33030493235814  -0.07481510803033
6   -1.37240678244847  -0.38525041120152  -0.00359932844389
6   -1.04284438296312  0.94947783449806  0.03242337671831
1   0.64990249049119  2.44308469530641  -0.12245626854474
1   -1.78669890477448  1.86038932054696  -0.01866911596270
1   -2.50823179788142  -0.62163691639277  0.22855392881526
1   -0.65747315294162  -2.39287722026780  -0.07677846739159
1   1.71887403415357  -1.94929128142272  0.30885807912698
1   2.33448784731671  0.49199477356559  -0.25010119860485





