%nproc=4
%Mem=2Gb
# TD=(NStates=1) B3LYP/6-31G(d,p)  

EMISPCT

0 1
6   0.32717663666220  1.41321676136372  -0.05978308990047
6   1.30848323707298  0.34945758460346  0.09532520287112
6   1.07807011170207  -1.03624211080967  -0.04412280867247
6   -0.36114719363911  -1.41561399731014  0.05749047310959
6   -1.39254142240201  -0.36064024320615  -0.00362737176956
6   -0.98481105970707  1.01818183917369  -0.01821317256515
1   0.84071993337527  2.57310067991131  -0.00650335907908
1   -1.84309137604691  1.62044550777906  0.06900896280354
1   -2.30000719618595  -0.48532719908962  0.00091240871125
1   -0.59706951743193  -2.51727097776517  -0.00639282919827
1   1.96512531063849  -1.64793943123645  -0.54472634473450
1   2.24196983393769  0.83800914920327  0.11774430949867





