%nproc=4
%Mem=2Gb
# TD=(NStates=1) B3LYP/6-31G(d,p)  

EMISPCT

0 1
6   0.41490767779081  1.35038797594127  -0.12728006678340
6   1.40362507805547  0.42734262210495  0.02615620692285
6   1.00308782281977  -0.93247184352167  0.04540360441786
6   -0.37246970800558  -1.38045894869635  -0.06445335312620
6   -1.45221689203660  -0.40217169947081  0.05180878062340
6   -1.00926342869291  0.92469608951337  0.04403904047692
1   0.58922254180450  2.40176735429746  0.28452911441571
1   -1.68876945271318  1.78679526226647  -0.07883842671599
1   -2.47490389809804  -0.53294246730347  0.05228974730053
1   -0.67356126666185  -2.52412955071648  -0.07671908765902
1   1.90425262652350  -1.61864272170437  -0.11751552252332
1   2.50319327726073  0.65258492883444  0.26869593725262





