%nproc=4
%Mem=2Gb
# TD=(NStates=1) B3LYP/6-31G(d,p)  

EMISPCT

0 1
6   0.33042816863470  1.38796580495880  0.06724344055935
6   1.35094015924697  0.39661438211574  -0.03385220959194
6   1.01600134930299  -1.02887291406020  -0.05679874363772
6   -0.32645551924003  -1.39781621291797  0.07941299140106
6   -1.36705536572291  -0.38764116228392  -0.09312386585175
6   -1.01937396925939  1.03180651815963  0.02240279224393
1   0.71979564154770  2.32775177661959  0.19363284828596
1   -1.69159843201659  1.83330006391039  -0.32389610104459
1   -2.38448423666657  -0.69636181744111  0.15304167819771
1   -0.59454562746129  -2.45492007661889  0.21917549863260
1   1.73725791183157  -1.77466822772514  0.08686105048025
1   2.39356653359946  0.76151374024158  -0.12771251123210





