%nproc=4
%Mem=2Gb
# TD=(NStates=1) B3LYP/6-31G(d,p)  

EMISPCT

0 1
6   0.34196740323558  1.38837002326919  0.06594961081962
6   1.34332925493859  0.39610662372941  -0.00021473899206
6   1.05377500614058  -1.03952994185320  -0.03294519127328
6   -0.31526091054895  -1.38538538859927  0.10041555842072
6   -1.45134335121662  -0.36838009332426  -0.02197674614967
6   -1.00682481578185  0.98898260083715  -0.00520316019703
1   0.78846082563854  2.44778119049698  -0.01914345141443
1   -1.63825065087864  1.97736801560581  -0.14054386702416
1   -2.44241949487156  -0.66827634890504  -0.63846591893705
1   -0.56830794609812  -2.50280026189128  0.08558658104677
1   1.94270972926016  -1.86111072377315  -0.28575431948457
1   2.33623559651384  0.87371541800880  -0.45070257010649





