%nproc=4
%Mem=2Gb
# TD=(NStates=1) B3LYP/6-31G(d,p)  

EMISPCT

0 1
6   0.37495309122827  1.39133018647706  -0.07289534928965
6   1.42537954475650  0.44643947386749  0.08449579519932
6   0.94938326295911  -0.94670853713311  -0.02178240611457
6   -0.40008784128759  -1.36408446789596  0.02348527205406
6   -1.41032588284272  -0.44270862155065  0.03643723840424
6   -0.94466273480023  0.94640440284289  -0.00762195822965
1   0.59480901268284  2.43189184736809  -0.34159017472694
1   -1.67584065514224  1.58580927168887  0.19525983394520
1   -2.25555428473555  -0.73039779897566  -0.10391774033052
1   -0.73713001004978  -2.53952094374190  -0.19138365323864
1   1.73182025559641  -1.87548007515939  -0.49402222119266
1   2.41136326958322  0.78186902633709  0.36002253121886





