%nproc=4
%Mem=2Gb
# TD=(NStates=1) B3LYP/6-31G(d,p)  

EMISPCT

0 1
6   0.37012026699302  1.38164269998696  -0.05131882718263
6   1.38122334634021  0.41775561091678  0.08176514478862
6   1.06138150264971  -1.05910753591041  -0.07910534068320
6   -0.34716817739686  -1.37733628895561  0.07677998108270
6   -1.42179505468337  -0.36706989732428  -0.01182537345936
6   -1.04143712666224  1.00505374251211  -0.01369379235427
1   0.59843527586239  2.39240151977299  0.04359553671673
1   -1.78945316520658  1.77932094916860  0.09132562867497
1   -2.39001001782492  -0.80820767942502  0.01822408260004
1   -0.55457440670790  -2.35826581895136  -0.11019036321704
1   1.63702273679232  -1.95316924219002  -0.16686178566067
1   2.50555039846253  0.93044936103897  0.08833840759716





