%nproc=4
%Mem=2Gb
# TD=(NStates=1) B3LYP/6-31G(d,p)  

EMISPCT

0 1
6   0.36796686192556  1.37617662301118  -0.02828479020558
6   1.39696452880235  0.38020584814495  0.05384552312330
6   1.01603916277940  -0.98405065938049  -0.01110652178357
6   -0.34954234830517  -1.34632491601665  -0.01870670015061
6   -1.39245376528485  -0.40844184827939  0.03441711191431
6   -1.02348094287651  1.01973850918576  -0.02855513717537
1   0.58448674595574  2.46272479510723  0.12725010126246
1   -1.82509982900004  1.59130127011472  0.04286838464405
1   -2.45868625281588  -0.93796691997304  -0.11909833938550
1   -0.73752879340202  -2.37375744349717  0.25660319856931
1   1.72064611066968  -1.87904906599340  -0.27431072085919
1   2.53389109530970  0.70124750431427  -0.05531959577154





