%nproc=4
%Mem=2Gb
# TD=(NStates=1) B3LYP/6-31G(d,p)  

EMISPCT

0 1
6   0.32026300050041  1.34988327937527  -0.01804945046733
6   1.45448580872180  0.38121585594276  0.01264921428104
6   1.04404889768303  -1.01215241060856  -0.00478493743773
6   -0.33902777851563  -1.38704794508857  0.02275324900495
6   -1.43102170394626  -0.36731420984508  -0.04623413883467
6   -1.04303479608392  1.03943166478691  0.03779166638860
1   0.59229531778964  2.44423426564117  -0.13202393756325
1   -1.75016172724357  1.83375664826638  0.10920146953017
1   -2.44755473878026  -0.83071961623033  -0.03466943157267
1   -0.51124676424987  -2.47106514135362  0.04043700472879
1   1.66321185373557  -1.83050693542783  -0.05866845630280
1   2.39190393177881  0.80471464209710  0.01932944440330





