%nproc=4
%Mem=2Gb
# TD=(NStates=1) B3LYP/6-31G(d,p)  

EMISPCT

0 1
6   0.40331013760067  1.45151718499077  -0.08417320532244
6   1.36291478872609  0.41311384002263  0.00520788578764
6   0.98031109358802  -1.04071117535049  0.11509494175878
6   -0.33238501754778  -1.40409808860725  -0.08419596479626
6   -1.36278936747890  -0.39610216226880  -0.03405163657494
6   -1.04391349646759  0.98292915903766  0.08994222632488
1   0.59223286617922  2.40406928066148  -0.02916174719906
1   -1.78075097732591  1.74665900946710  0.35153613052398
1   -2.27039877156773  -0.67668657782969  -0.23754979676993
1   -0.69844746587620  -2.48642433204163  0.13977063428922
1   1.72336942787925  -1.68674027752857  -0.00447289324963
1   2.33551825660502  0.61755075246532  -0.32706437235589





