%nproc=4
%Mem=2Gb
# TD=(NStates=1) B3LYP/6-31G(d,p)  

EMISPCT

0 1
6   0.33250133451679  1.32125270109019  -0.07677475492364
6   1.38075996699940  0.39841380633605  0.05055118189870
6   1.05402261355253  -1.02542405703299  -0.01715953055617
6   -0.34636230964603  -1.37141877882533  -0.06234489277317
6   -1.36692520614929  -0.35048385471542  0.04799499385562
6   -1.02685098114222  1.02539675845646  0.02782603887978
1   0.39186311031644  2.38102715948783  -0.20611515691944
1   -1.71684616938285  1.76647028974510  0.11735164796064
1   -2.36198712208698  -0.73355741226169  0.04807874608396
1   -0.71107790894720  -2.47442238255117  -0.00763790410464
1   1.63941359075900  -1.81933364915550  0.13151331812057
1   2.48452087558479  0.87634957594656  0.32552718498374





