%nproc=4
%Mem=2Gb
# TD=(NStates=1) B3LYP/6-31G(d,p)  

EMISPCT

0 1
6   0.33702254789122  1.42997540835692  0.03567805335415
6   1.34826918235747  0.40976822313583  -0.04267677242838
6   1.01129748936720  -0.99568103644324  -0.02592937715599
6   -0.40216006285997  -1.40194144763562  0.07602256921552
6   -1.34031705052840  -0.37353289294296  -0.05005372438758
6   -0.95457632492335  0.96554542704377  -0.00301322757866
1   0.46996748570674  2.30511919580089  0.29419873447067
1   -1.69293851078593  1.85633614597091  -0.04536827262080
1   -2.35706067578019  -0.76681098733877  -0.15578289137662
1   -0.65476969813410  -2.63296258212149  0.13380389398753
1   1.88625232557228  -1.86247081296100  0.01012998219774
1   2.36675935573320  0.71424862777817  -0.10070156725233





