%nproc=4
%Mem=2Gb
# TD=(NStates=1) B3LYP/6-31G(d,p)  

EMISPCT

0 1
6   0.31118532324196  1.38077029391085  0.04990458659226
6   1.35742922391742  0.36357682408002  -0.01949091609986
6   1.05387733041138  -1.00069197744802  -0.00081652189029
6   -0.36542238376213  -1.39146969550200  -0.01347208836385
6   -1.31605721057748  -0.36562575767316  -0.01880469738064
6   -1.02112723101058  1.00488962271959  -0.00571868332158
1   0.61949620896723  2.42054127085091  0.29384144061527
1   -1.79604118222709  1.65338272333520  -0.25552061078547
1   -2.45065510750594  -0.59662359538202  0.00187345687913
1   -0.72867101367684  -2.36058585421761  0.36533856639472
1   1.67199937259822  -1.88403667085779  0.04466702688964
1   2.46649973290811  0.83324553305923  -0.33543350031933





