%nproc=4
%Mem=2Gb
# TD=(NStates=1) B3LYP/6-31G(d,p)  

EMISPCT

0 1
6   0.37887331568674  1.38041281293930  -0.00938897591229
6   1.34934224286649  0.38225879549856  -0.08234452322262
6   1.07886964094181  -1.02300596953788  0.11322550657043
6   -0.32043324496936  -1.37445394709443  -0.07642645620080
6   -1.42472627091932  -0.40143753788049  -0.01011255571727
6   -1.06183459576522  1.05449052271268  0.10648217681399
1   0.77318206572151  2.37307964552576  -0.10110613335026
1   -1.90436358777566  1.88761033608416  -0.26560886922332
1   -2.46310553071851  -0.81901721543891  -0.07160186330271
1   -0.76501753590814  -2.42514767277022  -0.23912296394746
1   2.00762757744860  -1.83044671618378  0.28448033934540
1   2.35153393307235  0.62555314900676  -0.17333186471797





