%nproc=4
%Mem=2Gb
# TD=(NStates=1) B3LYP/6-31G(d,p)  

EMISPCT

0 1
6   0.38803225336217  1.28892410391963  -0.03586950218754
6   1.44409574421307  0.43043532283468  -0.05270944914303
6   1.04152674529559  -0.96001397864897  0.11448492917466
6   -0.36917286679582  -1.38590554744152  -0.08834805121346
6   -1.44622329180768  -0.34692852201950  -0.03710484780705
6   -1.04570283316154  0.96281712641555  0.06476759481279
1   0.61135021578036  2.35623350435401  -0.01128850963207
1   -1.84420234147571  1.82805594331765  0.22542642081864
1   -2.38226859090453  -0.71090692402350  0.10387428000503
1   -0.61784636154491  -2.43646354694644  0.06607216491021
1   1.74306828765520  -1.72799510929506  0.15161346544831
1   2.38777495563761  0.80467420801562  -0.06039102791397





