%nproc=4
%Mem=2Gb
# TD=(NStates=1) B3LYP/6-31G(d,p)  

EMISPCT

0 1
6   0.34406641561276  1.36139903432358  0.07610411163493
6   1.39269509114295  0.40797045717192  -0.02822166889779
6   1.09283091669587  -1.00996661948016  0.02385712349066
6   -0.41651883611528  -1.35849568779537  -0.13525399121723
6   -1.39301784627673  -0.38290625196143  0.11521902689856
6   -1.01305286194149  0.98326691202919  -0.08214431200403
1   0.69098551131795  2.40184183055340  -0.01779053640134
1   -1.96043110755732  1.58203534714205  -0.21592268035106
1   -2.46129291840284  -0.41029968642211  0.20122003222189
1   -0.50146666233163  -2.47917495217123  0.21625116621391
1   1.84731440097061  -1.78102688555202  0.23831226149929
1   2.32310457511500  0.65816778789039  -0.00607153855250





