%nproc=4
%Mem=2Gb
# TD=(NStates=1) B3LYP/6-31G(d,p)  

EMISPCT

0 1
6   0.34689756646514  1.33806901015409  -0.00042968130254
6   1.40535939012685  0.37618349931447  -0.02268102910913
6   1.01751876034353  -0.99465852398389  0.03155719151258
6   -0.37464295838332  -1.38109384928434  -0.04482565644508
6   -1.36345853612200  -0.38250020328296  0.02092785105282
6   -1.04073671131861  1.00559037845588  -0.01147376724883
1   0.56691168425064  2.36581055097819  -0.03703654682833
1   -1.76468473761769  1.76065875356766  0.14601546649750
1   -2.50057588701111  -0.63909130047917  0.15845311227287
1   -0.69074830212385  -2.32316406405497  -0.20777473572134
1   1.95007228164798  -1.63866152606183  0.32570169052945
1   2.54147076233537  0.91172934408788  -0.01739340236764





