%nproc=4
%Mem=2Gb
# TD=(NStates=1) B3LYP/6-31G(d,p)  

EMISPCT

0 1
6   0.35218504350033  1.40942339590503  -0.04907113719624
6   1.33318832310967  0.34096821376259  0.03355072672809
6   0.97892582604382  -0.95738896702541  0.02915417190013
6   -0.31470407368754  -1.40399068052979  -0.02934099960372
6   -1.31771544824607  -0.40381338621594  -0.02735805890848
6   -1.01081422414930  1.01024478066967  0.04966020239156
1   0.60098338160909  2.44260809934673  -0.16506207942479
1   -1.90220991038138  1.63666923832142  0.13699153220846
1   -2.38505937270745  -0.52174493145594  0.04762072103752
1   -0.76618571731043  -2.30513033405361  -0.01265734013897
1   1.84562385144403  -1.67368792514009  -0.02714011804207
1   2.34058487471124  0.45669958996435  -0.06989375489512





