%nproc=4
%Mem=2Gb
# TD=(NStates=1) B3LYP/6-31G(d,p)  

EMISPCT

0 1
6   0.38221449282981  1.41776196624874  -0.00639148578862
6   1.35216171540273  0.37811860377922  -0.05198606954280
6   1.00448518084516  -1.02759734056776  0.05118266403292
6   -0.35979785481582  -1.39766900903463  -0.02235214171779
6   -1.33535634052353  -0.41003744940707  -0.03601435049315
6   -1.02687527716570  1.02819486940578  0.05475817777212
1   0.60792471668190  2.53540703453108  -0.09270056700902
1   -1.99649213123303  1.67289965703259  0.09035640449361
1   -2.37946087943428  -0.70167320051630  -0.09584201007435
1   -0.64241800052057  -2.34454642108389  0.11768582620371
1   1.82749333860566  -1.65101787758271  0.01279205862087
1   2.37112530435053  0.59521724155700  0.11534143284183





