%nproc=4
%Mem=2Gb
# TD=(NStates=1) B3LYP/6-31G(d,p)  

EMISPCT

0 1
6   0.33087023859273  1.37058301658209  0.10061947446746
6   1.41341153750394  0.40303511152736  0.01580211443034
6   1.07558562140718  -1.06364310752691  -0.10233959986536
6   -0.34171550210183  -1.32822470377040  0.03530965197817
6   -1.42309309797867  -0.40496179338172  0.07561192438228
6   -1.04053255257518  1.02394673575268  -0.12669339123247
1   0.62269124140941  2.48987468426190  -0.12063187574844
1   -1.88328053880039  1.60423435093826  -0.08897532362782
1   -2.44280029939168  -0.53634448299801  0.02255857623211
1   -0.69535253595961  -2.47248771090927  0.03490674855836
1   1.72081645536017  -1.81111717171385  0.03166607859491
1   2.52006303545917  0.69438945214598  0.14355941579858





