%nproc=4
%Mem=2Gb
# TD=(NStates=1) B3LYP/6-31G(d,p)  

EMISPCT

0 1
6   0.36057340779967  1.43328632182949  0.04828232757640
6   1.33995878103557  0.37888857811108  -0.06099334772975
6   0.98288207779916  -0.96063509108812  -0.00990833888073
6   -0.38684302968693  -1.42904368942997  0.01553575668659
6   -1.31708326296963  -0.40150805753868  -0.03514549639318
6   -0.98643345662379  0.97888784373652  0.03268675569221
1   0.61470601848348  2.56440169900531  -0.01213561426597
1   -1.67951905551389  1.76408930828812  0.02382433159958
1   -2.40627819148883  -0.63828879164386  -0.37867189547209
1   -0.51071970815129  -2.56906190778366  0.38527693231729
1   1.65354462876700  -1.86500826741244  0.13580049398186
1   2.39678729044788  0.74902798043122  -0.02369289316523





