%nproc=4
%Mem=2Gb
# TD=(NStates=1) B3LYP/6-31G(d,p)  

EMISPCT

0 1
6   0.31350328851459  1.36209637441406  0.08364981076092
6   1.39955832782242  0.43822798298389  -0.05549308239029
6   0.99574099085862  -1.00263179254066  0.05031593897609
6   -0.34308815236413  -1.37525433901633  -0.00983434600635
6   -1.37621102315153  -0.39975025285426  0.03309280212538
6   -0.97630702507425  0.99379775917249  -0.05724390534309
1   0.74644000136238  2.25204383154344  0.01039600650481
1   -1.69728393322994  1.54414566432491  -0.19230916924063
1   -2.54969789539425  -0.48000126150617  -0.02189489143459
1   -0.68364480696155  -2.48268714415746  -0.05963018959053
1   1.72229290508096  -1.67280307743170  -0.22001206171578
1   2.31802759790350  0.64365116110299  -0.12455234219980





