%nproc=4
%Mem=2Gb
# TD=(NStates=1) B3LYP/6-31G(d,p)  

EMISPCT

0 1
6   0.33530911907965  1.39971409309576  -0.09175051031517
6   1.31476156844922  0.34697507731658  -0.02919018661203
6   1.00654875099910  -0.98863303533540  0.08921894277707
6   -0.35608085069545  -1.40053959609987  0.01688375303181
6   -1.32513217889306  -0.38879600478873  -0.07126371709317
6   -0.98440120630897  1.03451494811156  0.10325714412618
1   0.65905012814608  2.47201889621440  0.13924381973904
1   -1.82255980250749  1.60078609211345  0.05651507983511
1   -2.22368312972958  -0.71539772231005  0.03562200502478
1   -0.74270974448925  -2.45821827764153  -0.37513472078515
1   1.81562538552785  -1.73722108704346  -0.04479778971329
1   2.42118266511198  0.80870075345691  -0.04591654826773





