%nproc=4
%Mem=2Gb
# TD=(NStates=1) B3LYP/6-31G(d,p)  

EMISPCT

0 1
6   0.32485213865559  1.38703462690497  0.07212019450103
6   1.37837621703756  0.42212074596702  0.04594567605096
6   0.99681666380902  -1.01375275959897  -0.08028459814678
6   -0.35292194221617  -1.39380575253523  0.02521275065643
6   -1.32108071293989  -0.38860956696407  0.02238475480684
6   -1.00081459629263  1.00457626646858  -0.11310068809225
1   0.62734538882076  2.41821576292026  0.16696352616702
1   -1.93122849036730  1.77544434183013  -0.18001966511184
1   -2.39225465581717  -0.69855906185440  0.45700213177518
1   -0.83936255538635  -2.42519863917791  0.05264708385129
1   1.87266062525191  -1.87648954785002  0.00101309087296
1   2.38054615209618  0.57700091001218  -0.11875072782959





