%nproc=4
%Mem=2Gb
# TD=(NStates=1) B3LYP/6-31G(d,p)  

EMISPCT

0 1
6   0.34526518756403  1.35660486020721  0.09379845693032
6   1.33903018993048  0.32366698797632  -0.06641333435451
6   1.03630851325871  -0.99985150692784  -0.04707232387265
6   -0.30372144670806  -1.32445058700733  0.11302964229509
6   -1.35599843260919  -0.37979783019441  -0.10161967652068
6   -1.02416883135027  1.04113635593984  -0.01449332407695
1   0.61208564575424  2.43141591959608  0.16419599312985
1   -1.95942318913917  1.54650633753509  0.01883918933396
1   -2.35944161302568  -0.82689398169652  0.04938483797109
1   -0.85008456073031  -2.27481851871000  0.03062334224887
1   1.85185422719152  -1.73577627012464  0.23656213287760
1   2.27202234364941  0.63412159176455  -0.18841851436978





