%nproc=4
%Mem=2Gb
# TD=(NStates=1) B3LYP/6-31G(d,p)  

EMISPCT

0 1
6   0.36780899636661  1.40506877091414  -0.05588734746973
6   1.37437595475380  0.31357198417389  0.06923637642899
6   1.04960194900850  -0.96982258355098  -0.01248456095113
6   -0.31536899584353  -1.37094289056517  -0.15335621807150
6   -1.43114638358506  -0.43690682508652  0.16904684902708
6   -1.05867117513860  1.07635870723218  -0.07279289686538
1   0.58368627295445  2.42529466966416  -0.02519482727662
1   -1.75808472895761  1.98288822379089  0.08245927614162
1   -2.43178061499157  -0.88969156262582  0.14639024639021
1   -0.52356753884103  -2.44238950321967  0.06572968345434
1   1.82203521428702  -1.74204633786732  0.24514565445394
1   2.41241468444640  0.50419935738105  0.25404253815955





