%nproc=4
%Mem=2Gb
# TD=(NStates=1) B3LYP/6-31G(d,p)  

EMISPCT

0 1
6   0.35112765741222  1.36957197237850  -0.01482115900393
6   1.34549953105363  0.37280390554325  -0.04023360537880
6   0.99230726039043  -1.03291103860394  0.07937176654366
6   -0.29839594789977  -1.37229890570224  -0.07075541343022
6   -1.32550968917258  -0.35972185364808  0.04071537839580
6   -1.08689282553894  1.02396902116067  0.02281679241323
1   0.80946662287521  2.38880520432896  0.08636948980638
1   -1.73600604279436  1.95793025528028  -0.07948615632782
1   -2.33056148496402  -0.82074520367518  -0.16886106951541
1   -0.57713644915028  -2.47162992280960  0.00664065719706
1   1.78172949825075  -1.72879621017300  0.00633817929388
1   2.27579940846458  0.68690145838491  -0.08462648083038





