%nproc=4
%Mem=2Gb
# TD=(NStates=1) B3LYP/6-31G(d,p)  

EMISPCT

0 1
6   0.31690504971892  1.32080990602479  0.11103799584769
6   1.39020510218562  0.40262642841195  -0.04145216410006
6   1.07788197502266  -1.04311357156532  -0.07281453227843
6   -0.32213484025295  -1.33801199681285  0.00930293654205
6   -1.37796696477637  -0.37738323053170  0.05103988458371
6   -1.07306833619220  1.01380064160460  -0.11307079041237
1   0.55233128360290  2.46768466237627  0.32458442433000
1   -1.63885237212934  2.20506160371636  -0.27267324618392
1   -2.45408951409860  -0.86740452261070  0.19242854815357
1   -0.66874820026259  -2.34446640535136  0.24478215698737
1   1.62628586874721  -1.92234429777721  0.22129743743984
1   2.45253831612018  0.68518107441600  0.05431116677770





