%nproc=4
%Mem=2Gb
# TD=(NStates=1) B3LYP/6-31G(d,p)  

EMISPCT

0 1
6   0.29592100848311  1.43545479969963  0.03646423834472
6   1.36082414598772  0.33482667502527  0.00310180636068
6   1.05697634487908  -1.01632682229506  0.01696258856599
6   -0.34069413565101  -1.38375012440045  0.00090747500027
6   -1.35984080417738  -0.36596916711563  -0.00111635446068
6   -1.01043658468871  0.99148894875404  -0.06532537490239
1   0.59424686078455  2.49087705757531  0.07016163571588
1   -1.81925248459377  1.67790074190525  0.01294040567377
1   -2.46811054060454  -0.59755040701788  0.32657173679426
1   -0.65031352113429  -2.30911968588223  -0.02949766157475
1   1.82872928984781  -1.62966156594781  -0.22154585388309
1   2.47157704318725  0.40248412055495  -0.03556410781025





