%nproc=4
%Mem=2Gb
# TD=(NStates=1) B3LYP/6-31G(d,p)  

EMISPCT

0 1
6   0.36998298150291  1.45625946492598  -0.04368740522870
6   1.38725463849304  0.37320476162818  -0.03154520522785
6   1.00403831867858  -1.00884746494517  0.08160760981202
6   -0.33269070789239  -1.39904944290703  -0.07451299036832
6   -1.40220188077140  -0.40523520943247  -0.02145998543846
6   -1.01221786521114  0.98704449472133  0.04172573925584
1   0.88608719441298  2.41831257432339  0.01954729306952
1   -2.03293898130955  1.65326151116914  0.19397549590851
1   -2.51098252368217  -0.59036084971255  0.14142558035176
1   -0.63817606916001  -2.55038374843933  0.17033334065507
1   1.75859461166990  -1.70270297709220  -0.02695102393944
1   2.34586487667590  0.72416636989854  0.15591255562591





