%nproc=4
%Mem=2Gb
# TD=(NStates=1) B3LYP/6-31G(d,p)  

EMISPCT

0 1
6   0.29593411170582  1.43240247911960  0.05983715846188
6   1.40179539067884  0.34735800753285  0.00146977110368
6   1.02094944706909  -1.04273331515155  -0.04697739215819
6   -0.35445387477711  -1.43938268529531  -0.00250441932474
6   -1.32624076611937  -0.35293650870583  0.02184160333229
6   -1.01386625818777  1.00879845570128  -0.04525305660459
1   0.54072595199916  2.45980592479105  -0.16413102369146
1   -1.88223890828718  1.81507540577274  -0.01281382651649
1   -2.53466871439772  -0.59691190944861  0.01306454041965
1   -0.76398752752821  -2.40876855104858  0.17647496445256
1   1.92252300818556  -1.60724625401122  0.06483195512074
1   2.42700195219522  0.82580238645482  0.08090930447378





