%nproc=4
%Mem=2Gb
# TD=(NStates=1) B3LYP/6-31G(d,p)  

EMISPCT

0 1
6   0.33405083962940  1.34489566182706  -0.05624826707106
6   1.36110273681234  0.37420394709106  -0.01804594130749
6   1.00192366996912  -0.99965954285670  0.04205834657996
6   -0.40551716047292  -1.28915506017018  0.03664606444238
6   -1.30282114149498  -0.38511022835202  -0.09566760165343
6   -0.97874740449701  0.96425967707870  0.10232521695218
1   0.34039032439540  2.45063735578881  -0.15849143439623
1   -1.77185092632931  1.61831717733008  0.27329598475136
1   -2.36184630849513  -0.78450584994108  -0.15899287166844
1   -0.71427112776893  -2.37631492460631  -0.10476201864093
1   1.97105944210895  -1.56906660180447  0.00402956785632
1   2.40809520276493  0.52956696507862  -0.00635007311662





