%nproc=4
%Mem=2Gb
# TD=(NStates=1) B3LYP/6-31G(d,p)  

EMISPCT

0 1
6   0.35055289071974  1.41353509908022  -0.03388199003583
6   1.44127927640744  0.37680362251283  0.00743506146532
6   0.99339667300318  -0.99496759604658  0.03479517912640
6   -0.37305818756974  -1.36298836070679  -0.04633746699133
6   -1.32908042738753  -0.35248301969371  0.07383786663102
6   -1.06700917797042  0.96798325618035  -0.01266846365151
1   0.48080955745681  2.43266791839646  0.18004461263712
1   -1.85820602441659  1.68760860186910  -0.34010411975503
1   -2.49725001974448  -0.84730444583163  0.16308722733976
1   -0.52251658807624  -2.55549772430551  -0.27941414449217
1   1.61755091516542  -1.90622552840258  -0.09640766676014
1   2.56825796288334  0.62008792400307  0.05598754159498





