%nproc=4
%Mem=2Gb
# TD=(NStates=1) B3LYP/6-31G(d,p)  

EMISPCT

0 1
6   0.38682734075172  1.40574235313796  -0.02040337058057
6   1.40130791844375  0.43801641408815  0.00417330841796
6   0.95611084205896  -0.97080189450284  -0.03765954175605
6   -0.33849402818551  -1.49877345865167  0.03374876496576
6   -1.39797405383629  -0.37643332519190  0.05580710020542
6   -1.00996399834327  1.02032465252236  -0.02262346011421
1   0.65662089248943  2.33885034005613  -0.05333777114794
1   -1.76526987550389  1.78753972821425  -0.03703228704967
1   -2.47448991588066  -0.72311344428552  -0.13992005861558
1   -0.57100673277662  -2.55525813706922  -0.24075967505728
1   1.80360257960153  -1.64998364074018  -0.07190827168654
1   2.39257229414939  0.61841156950002  0.36469578133351





