%nproc=4
%Mem=2Gb
# TD=(NStates=1) B3LYP/6-31G(d,p)  

EMISPCT

0 1
6   0.36087450587922  1.36004646045441  -0.02083388807506
6   1.37102585762590  0.39335056302821  0.00164416413103
6   1.04410602193529  -0.99488944652089  0.05835405661127
6   -0.34344337331736  -1.31635349378871  -0.10715624921537
6   -1.39368026295228  -0.39077875445216  0.04563821442355
6   -1.03973590889094  0.97557549240373  -0.00447155755132
1   0.74792441550170  2.31151119044545  -0.09777822820047
1   -1.82996226312578  1.73172244927903  0.03224868207381
1   -2.37041574417319  -0.70713239199183  0.34647172098685
1   -0.55461467293919  -2.38981616043075  -0.15872337139070
1   1.65330916999855  -1.84733838470016  0.23547021478908
1   2.35765820266419  0.59928998740962  0.00891219731216





