%nproc=4
%Mem=2Gb
# TD=(NStates=1) B3LYP/6-31G(d,p)  

EMISPCT

0 1
6   0.31070152207162  1.36728574527805  0.09923107860222
6   1.32320512173417  0.35505766194344  -0.07022909446930
6   0.97927234900473  -0.99183940961237  -0.01236420036361
6   -0.31833689407734  -1.43877450674363  0.03910179019343
6   -1.32962427734866  -0.32507739894457  -0.04337724070416
6   -0.99637091184438  1.01816599237810  0.01785542933668
1   0.71663653952195  2.32045459883646  -0.20626430740599
1   -1.83628268296389  1.87247516379719  -0.30437461879622
1   -2.29885031689843  -0.63332389975038  -0.05148055210250
1   -0.34435912166983  -2.49301074293514  0.11925705367537
1   1.73413194364454  -1.62164557710414  -0.02936028745457
1   2.39542328730730  0.76223613537052  0.05923595661531





