%nproc=4
%Mem=2Gb
# TD=(NStates=1) B3LYP/6-31G(d,p)  

EMISPCT

0 1
6   0.36372172579962  1.37359578678940  -0.08707950196769
6   1.41433766317795  0.38105740322658  0.03657292295968
6   0.98230026460320  -0.95867150283116  -0.01630735427626
6   -0.33049306467202  -1.37035007040314  -0.05843895168560
6   -1.39944008706277  -0.37650377497694  0.05555512004524
6   -1.05090023451597  0.99883551045033  0.03470141045648
1   0.64822539821887  2.27125428268379  -0.11258908152304
1   -1.70887258615210  1.72332017848660  0.18406888471538
1   -2.42528393892945  -0.82936753975929  0.01352186829338
1   -0.40715760956046  -2.49245017181730  -0.28906878302473
1   1.62013838884244  -1.76483183066541  0.53227480771850
1   2.48895477632836  0.58090039513022  0.15006514821853





