%nproc=4
%Mem=2Gb
# TD=(NStates=1) B3LYP/6-31G(d,p)  

EMISPCT

0 1
6   0.33531975695333  1.43827653352147  0.10269221478132
6   1.35101288913414  0.32170603994867  -0.11229592189643
6   0.99032421937017  -1.04432946952930  0.05412251552863
6   -0.31117981504605  -1.38965040896601  -0.01461313011122
6   -1.30490115344093  -0.36121173945258  -0.00347509678860
6   -1.09297852262446  1.04071332814156  -0.00506553416403
1   0.58361564186697  2.44176569495779  -0.05955159118831
1   -1.67730698092782  1.93669433418587  -0.19073679321886
1   -2.45616885762480  -0.87599890382186  -0.01147120787912
1   -0.47716141784702  -2.37255141762776  -0.16619152908116
1   1.96333646362533  -1.65762132448012  0.30752990546046
1   2.37654441586270  0.49893484876929  -0.17157843120509





