%nproc=4
%Mem=2Gb
# TD=(NStates=1) B3LYP/6-31G(d,p)  

EMISPCT

0 1
6   0.34843745343577  1.40624449734166  -0.01546541990139
6   1.33913625769344  0.35332785457711  -0.00242137300566
6   1.05544761657241  -0.97410346274631  0.01678777702285
6   -0.37941365612198  -1.43345888335771  -0.04692866021047
6   -1.34156483706399  -0.34592237794269  -0.03078208385448
6   -0.99797965050043  1.01931530665972  0.05084147687185
1   0.50390977118289  2.48072528761776  -0.19204290527836
1   -1.90140892931568  1.57530401120562  0.17435990407193
1   -2.42186136574719  -0.75491088178313  0.07951499222363
1   -0.63721657911373  -2.47769537599031  0.03551855278975
1   1.73873467427136  -1.75692586098823  0.36754726035739
1   2.46632498435663  0.62385695299757  -0.08267526877458





