%nproc=4
%Mem=2Gb
# TD=(NStates=1) B3LYP/6-31G(d,p)  

EMISPCT

0 1
6   0.35929363788103  1.44414537987045  0.01175805060092
6   1.32709705106687  0.40154231496722  0.04948266106336
6   1.01823873787818  -1.03795790727625  -0.04148911969711
6   -0.40415361243902  -1.38912725443619  0.03648327469698
6   -1.28374894492349  -0.39710809628993  -0.02144236680065
6   -1.02331255648515  0.95702467340597  -0.04978960745641
1   0.60090028357131  2.52044118810749  0.13996248134916
1   -1.86856521020874  1.71695406224331  0.10744115881367
1   -2.48243586284507  -0.47947166663925  0.09130035663923
1   -0.70781400242203  -2.41514491359857  0.21520616071854
1   1.96390623236512  -1.59214919806402  -0.21141679795275
1   2.55488262577372  0.47971975163804  -0.13754355579819





