%nproc=4
%Mem=2Gb
# TD=(NStates=1) B3LYP/6-31G(d,p)  

EMISPCT

0 1
6   0.39074375023154  1.37411411792664  0.01485361413784
6   1.33502374262134  0.36058941704292  0.08090408975155
6   1.04689487957657  -0.98747548381240  -0.10279106134210
6   -0.33666261353935  -1.43326034485183  0.07363957131064
6   -1.38434578815410  -0.34221355619471  -0.04486531165808
6   -1.06078318556227  1.02367408677028  0.00421218521143
1   0.80617602721642  2.36354288662645  -0.32952059794417
1   -1.96973110481210  1.68813158239025  -0.06630802813855
1   -2.31537934972107  -0.61620906411405  0.04199805009509
1   -0.53586444383813  -2.44090342500449  0.16058981009796
1   1.82922941683233  -1.69931200816426  -0.25624365203377
1   2.30848487179590  0.77859514290245  0.09478155663582





