%nproc=4
%Mem=2Gb
# TD=(NStates=1) B3LYP/6-31G(d,p)  

EMISPCT

0 1
6   0.32440504081172  1.37879212304361  0.01554289138720
6   1.39174849459199  0.37266608947403  0.05897573024342
6   1.01385414023118  -1.00006315845477  -0.01441111953184
6   -0.32593452085113  -1.42991431112182  -0.06559648666304
6   -1.37128257974919  -0.35210400690445  0.06734484845763
6   -1.01405538567437  1.01329659613839  -0.05786931605189
1   0.54954931621404  2.41184607749032  -0.20280203838533
1   -1.83878403486628  1.77751034379923  -0.12385704198167
1   -2.56220908770855  -0.57471396838470  0.38012902835508
1   -0.49641708045396  -2.40834885165749  -0.11473469313125
1   1.74175460494010  -1.64003005827934  0.01422780323558
1   2.39485156423307  0.61423061167569  -0.00745654525928





