%nproc=4
%Mem=2Gb
# TD=(NStates=1) B3LYP/6-31G(d,p)  

EMISPCT

0 1
6   0.30961940241620  1.35803847964291  -0.03496302648403
6   1.29648760295761  0.39082165894950  0.02046357662287
6   1.07991090536090  -1.03407366488175  -0.01504271371423
6   -0.33963241917127  -1.41800314541012  -0.05372389182126
6   -1.32664653196020  -0.31886286531850  0.01226192641227
6   -1.00961156642430  1.00496268551299  0.00854520385059
1   0.52874553874789  2.48505883313777  -0.10440760005674
1   -1.73224273210406  1.80575848576704  0.14841517932157
1   -2.26590600887818  -0.57248368092187  0.10874994959090
1   -0.74058506913969  -2.36365664193903  0.34206509401821
1   1.78918653643731  -1.86389402742407  -0.02126579085705
1   2.36598380611675  0.68600455613971  0.38003781147830





