%nproc=4
%Mem=2Gb
# TD=(NStates=1) B3LYP/6-31G(d,p)  

EMISPCT

0 1
6   0.39761515061502  1.40059618370449  -0.01541489298844
6   1.40205247955466  0.42499750491360  -0.09410110654560
6   0.96165787041303  -0.99310269512255  0.14797461593792
6   -0.34909419147693  -1.39493084515552  -0.05379452331741
6   -1.42565052283174  -0.36501589833720  -0.08762925940159
6   -1.01081744922010  0.97342834948708  0.10625936132978
1   0.70704986730583  2.40213153460442  -0.09188386775712
1   -1.70078119660539  1.55984786382791  0.23982603618562
1   -2.52561113047115  -0.87680014710030  -0.08743064859417
1   -0.50783971881737  -2.53664686329654  -0.01278760953998
1   1.89034876530304  -1.86415047433776  0.12487497221631
1   2.42864323665294  0.83030110513253  -0.21763021437763





