%nproc=4
%Mem=2Gb
# TD=(NStates=1) B3LYP/6-31G(d,p)  

EMISPCT

0 1
6   0.34961625574400  1.37469456858277  -0.14873396670073
6   1.37708014982278  0.36568764879130  0.13626816743779
6   1.03191362198391  -0.98971542825582  -0.04141042540490
6   -0.36150073702180  -1.34397256048343  -0.08336071333505
6   -1.37780690035855  -0.37740346462959  0.15567479474183
6   -1.01348285353662  0.99453997855229  -0.03873309583324
1   0.51728043413668  2.44636997507067  -0.14949527616828
1   -1.61292388670447  1.73728621807705  0.16137459544427
1   -2.39828251491223  -0.89603325970962  0.13254038051264
1   -0.68199925735616  -2.52790253205564  -0.32314997055812
1   1.76544591496884  -1.74799434883771  -0.05625592383301
1   2.33633484365925  0.71675642671341  0.51234379555790





