%nproc=4
%Mem=2Gb
# TD=(NStates=1) B3LYP/6-31G(d,p)  

EMISPCT

0 1
6   0.34949047286269  1.34945253653396  0.03043637965872
6   1.44190881152043  0.34173381770589  -0.03411866043773
6   1.03429574974624  -0.98148093509430  0.00080276309038
6   -0.33955164510757  -1.36560787096638  -0.03978355241442
6   -1.43640605223145  -0.32610078722065  0.01748834109470
6   -1.04948761848056  0.99659289389271  0.00673397608895
1   0.40626492507574  2.31842292205725  -0.01450049979011
1   -1.81671439271936  1.65886666905737  0.05157675426005
1   -2.41685767698085  -0.86867851873794  -0.17680018986352
1   -0.54828390569855  -2.32928235545085  0.12609917459640
1   1.85457369445229  -1.59567054217696  0.42103495730726
1   2.52530270149813  0.65355460187703  -0.15539723994494





