%nproc=4
%Mem=2Gb
# TD=(NStates=1) B3LYP/6-31G(d,p)  

EMISPCT

0 1
6   0.38077598598173  1.36075456303577  0.05810842233331
6   1.36772516776425  0.40853788557225  -0.03951451908149
6   1.07618876953169  -1.02891662369504  0.02973906253576
6   -0.37181890946813  -1.30210315084718  -0.01801966367744
6   -1.43307758511933  -0.38187506735664  0.01005768941860
6   -1.00227403295654  0.97372821237414  -0.08002122982121
1   0.54890403622451  2.40568953503809  0.48929598919548
1   -1.81191036274921  1.68214889934612  -0.16443665470593
1   -2.43628408213333  -0.90284206631000  0.39370675735322
1   -0.58287344863283  -2.39886463016980  0.00900371445352
1   1.73625095609256  -1.83058170139323  0.07622483907981
1   2.36577708429171  0.68753054129785  -0.26191872204554





