%nproc=4
%Mem=2Gb
# TD=(NStates=1) B3LYP/6-31G(d,p)  

EMISPCT

0 1
6   0.34155306162421  1.42974036862773  0.05774183551810
6   1.37107894368876  0.37025508109771  -0.02040535747164
6   1.04049891216222  -1.04735497392740  -0.06076575349226
6   -0.38324039067561  -1.39279338025189  0.06374974785690
6   -1.31858697779144  -0.38563193237714  -0.08533708554301
6   -1.02334974135929  0.99930215996308  -0.03644794150011
1   0.52594395026780  2.59256171405394  0.22151472449358
1   -1.85292897807025  1.55732433215088  0.34484075586530
1   -2.43660823445399  -0.52237131375907  -0.14285429603511
1   -0.73220563084961  -2.32341408680201  0.77328746474655
1   1.85724282287243  -1.88541207226039  -0.10676960646485
1   2.31495383218429  0.83422284655305  0.02331920403225





