%nproc=4
%Mem=2Gb
# TD=(NStates=1) B3LYP/6-31G(d,p)  

EMISPCT

0 1
6   0.37241694862230  1.36309630481488  -0.06178646073879
6   1.37938136838196  0.39086410380065  0.05223612870024
6   1.01506468796410  -0.94270854258983  0.04118441199197
6   -0.33958534596821  -1.45863196214267  -0.02580829252679
6   -1.43030204948834  -0.37909730978082  0.00088091048176
6   -1.01371937032679  1.03179280909996  0.02179207332090
1   0.79817512918706  2.43978926543095  -0.23467235632756
1   -1.79408048983345  1.87476908218189  0.13725980727044
1   -2.48704519490347  -0.86936524655436  0.23265228958620
1   -0.51850917959584  -2.40993765493831  -0.40897607195591
1   1.83238735788372  -1.58150759605452  -0.07125121384858
1   2.37347276893731  0.52362961848284  -0.04450632819139





