%nproc=4
%Mem=2Gb
# TD=(NStates=1) B3LYP/6-31G(d,p)  

EMISPCT

0 1
6   0.33168122336827  1.45780709844238  -0.01452378848650
6   1.35455647430299  0.39423204984718  -0.01846820785895
6   1.00174807157044  -1.05107693424673  0.01027889223954
6   -0.38010806222103  -1.48721466976314  -0.06482630538916
6   -1.32830099609093  -0.35508595971993  0.01329406629113
6   -0.96562308555012  1.00238062342636  0.05100704961897
1   0.47612849415378  2.60362310314954  -0.18285434266862
1   -1.83562194940460  1.78649125317163  -0.00950025589470
1   -2.35181794472452  -0.63360854026066  -0.10869403106138
1   -0.79218960045771  -2.50237259956576  0.24373845553674
1   2.01473729992075  -1.61971415889838  0.17515987456542
1   2.35213904756250  0.78003607054742  0.19972964518385





