%nproc=4
%Mem=2Gb
# TD=(NStates=1) B3LYP/6-31G(d,p)  

EMISPCT

0 1
6   0.33936984901612  1.35087973054734  -0.00261518823615
6   1.37907014051007  0.39017486790167  -0.02778548923756
6   1.01912876497034  -1.02896883455078  0.10128192535814
6   -0.29809399046550  -1.33380341971602  -0.01417020711839
6   -1.40353212471383  -0.34961969479264  -0.01160688365437
6   -1.04483575971205  0.97345337978284  -0.03139023670439
1   0.70814941881815  2.24007328007499  0.12591896611312
1   -1.57552351470150  1.89707638823568  0.17086134906985
1   -2.49730093321744  -0.71415769830958  0.17667326455419
1   -0.52556019852875  -2.45954648197546  -0.21267970187022
1   1.77575461869219  -1.76765817041848  -0.31210804233305
1   2.20874517512187  0.79980624388655  -0.13610008109997





