%nproc=4
%Mem=2Gb
# TD=(NStates=1) B3LYP/6-31G(d,p)  

EMISPCT

0 1
6   0.34684618312198  1.40374357232105  -0.05611685077596
6   1.36414632578408  0.33688560327160  0.14858750068424
6   1.00265740013068  -0.98110621763121  -0.11815898435477
6   -0.34015146190581  -1.36121281612771  0.00349628979717
6   -1.37431460481709  -0.39527445523868  0.10823012300301
6   -0.99674903872114  1.02217082333984  -0.05756048963659
1   0.60793135166092  2.41243305724961  -0.07481277913653
1   -1.86441271796284  1.52421172955624  -0.21746084578541
1   -2.46093439525530  -0.64314530867998  -0.06260340615984
1   -0.62255884250040  -2.47969737209222  0.10482883360749
1   2.00315595829363  -1.66933676405906  -0.38246406920692
1   2.28236051157908  0.57791192187193  0.24330788754754





