%nproc=4
%Mem=2Gb
# TD=(NStates=1) B3LYP/6-31G(d,p)  

EMISPCT

0 1
6   0.38927248745362  1.43747687443868  0.01661142384446
6   1.44170216092406  0.40269685469892  0.01040915487714
6   0.99840283826063  -1.01017815792507  -0.00473075522244
6   -0.38562558234736  -1.38680967475680  -0.03603833698189
6   -1.39249061547731  -0.39083459130381  0.08456445328962
6   -1.03029784132689  0.93448094863920  -0.09568189037721
1   0.45546912466661  2.58092544773026  -0.09813752237842
1   -1.84032473076025  1.69573139909562  0.36594771659886
1   -2.50819602734704  -0.68722814332863  0.02380850519095
1   -0.65861200566762  -2.40067188635586  -0.22957275742069
1   1.77315308896937  -1.80080234352373  0.24584163904699
1   2.52887713645871  0.72396517278561  0.03193641009002





