%nproc=4
%Mem=2Gb
# TD=(NStates=1) B3LYP/6-31G(d,p)  

EMISPCT

0 1
6   0.35805417412129  1.37352428990222  0.03252959967797
6   1.39466206545322  0.39918893462424  -0.04795116745306
6   0.95576421535528  -0.98151561982827  0.05967169079106
6   -0.33716141336954  -1.38313043286317  -0.05614371430094
6   -1.31242576113500  -0.40661810813556  0.01178335995607
6   -1.02906655587886  0.99039849527520  -0.01814227216206
1   0.50985651578499  2.48080520544457  -0.05997970078496
1   -1.70933840565113  1.72028275557967  0.19445265955871
1   -2.46298355431937  -0.65390068881889  -0.05705233895646
1   -0.78528879740291  -2.39630620124330  0.16204463050232
1   1.68776213512580  -1.69657758539337  0.03430963364545
1   2.39538124450874  0.60532318471213  -0.02433466958856





