%nproc=4
%Mem=2Gb
# TD=(NStates=1) B3LYP/6-31G(d,p)  

EMISPCT

0 1
6   0.35612694029604  1.47608937270945  -0.03171946682337
6   1.32102110532752  0.33678739549344  -0.03952992623355
6   1.03017272654238  -0.97887856061506  0.04100302762571
6   -0.38204802715942  -1.39088804552449  -0.07090528379599
6   -1.35131545977805  -0.41994523122335  -0.02845225032223
6   -0.97741796798861  0.98504427805232  0.10072568325175
1   0.70302155995100  2.48970456766346  0.14033882301482
1   -1.74892741014417  1.67676663106180  -0.16221260584967
1   -2.43786011564432  -0.67966966187851  -0.03690268744785
1   -0.67847349024720  -2.55101158669613  0.17228532906800
1   1.81323354197136  -1.66537430841797  0.46670585257597
1   2.35501294222612  0.64151288618438  -0.18555642195952





