%nproc=4
%Mem=2Gb
# TD=(NStates=1) B3LYP/6-31G(d,p)  

EMISPCT

0 1
6   0.34636547624260  1.38685070534561  0.06815665544644
6   1.40124167148046  0.38893401043242  -0.10786373676534
6   1.01593914299426  -0.99194133006833  0.04626525140797
6   -0.34837855775158  -1.34977413130301  0.06975997795769
6   -1.40100374785331  -0.40373147872126  -0.06247835613231
6   -0.99386104973225  0.97401954139822  -0.02461598030224
1   0.48246318080569  2.38860393675069  0.30295651365693
1   -1.77761984736245  1.71357640993523  0.14993065903511
1   -2.55819509694259  -0.66913947719208  -0.15644866931897
1   -0.62583835683317  -2.35396610549469  0.02542391230129
1   1.75269000790803  -1.71220800680672  -0.04597064082266
1   2.48542614138531  0.56211419224127  -0.12862786688513





