%nproc=4
%Mem=2Gb
# TD=(NStates=1) B3LYP/6-31G(d,p)  

EMISPCT

0 1
6   0.36674138461748  1.41025857642579  -0.06212248586455
6   1.40575619356049  0.43889463907756  -0.01962956992199
6   1.01463541120349  -1.00244536038016  0.02251591157248
6   -0.37512491314942  -1.40980695823001  -0.02505665336859
6   -1.36443162961916  -0.37244961325929  -0.03788156655715
6   -1.06436230310736  0.96213108485704  0.09045911109625
1   0.81315583014453  2.31259312019064  0.00368099151591
1   -1.71390582768657  1.62829564374314  0.16666923455159
1   -2.22657558164407  -0.74458410228606  -0.14462452247307
1   -0.87092524338109  -2.34160955842327  0.04349093132656
1   1.75950533045638  -1.78854859497940  0.34454935732223
1   2.44842786249097  0.64056356029490  0.01966513268539





