%nproc=4
%Mem=2Gb
# TD=(NStates=1) B3LYP/6-31G(d,p)  

EMISPCT

0 1
6   0.35170547275391  1.37138187536535  -0.00463827181403
6   1.35122766541636  0.40067109178875  0.04629284325155
6   1.03895022294142  -1.07023037287121  -0.01042317551200
6   -0.30888480107878  -1.40050956442581  -0.00616214284117
6   -1.38018341929437  -0.32158630475211  -0.02679341505507
6   -1.03039606698579  1.00495338224334  -0.00703899794564
1   0.55150251441902  2.51434281856048  -0.19880728360000
1   -1.91630545817066  1.64346919730226  0.18800839762780
1   -2.53129556094112  -0.62874836348175  0.14353224762599
1   -0.64910134876983  -2.39672079361328  0.14183636141886
1   1.84101824944660  -1.65330518639268  -0.15006499154651
1   2.48658571802659  0.67030928747633  -0.00475221266929





