%nproc=4
%Mem=2Gb
# TD=(NStates=1) B3LYP/6-31G(d,p)  

EMISPCT

0 1
6   0.30882154249904  1.33517807125768  0.07947155610372
6   1.34098459732275  0.32929400005949  -0.08800456486657
6   1.08620271916175  -1.01597002721299  0.08681920695149
6   -0.34974682298513  -1.31591708827641  -0.00362029175441
6   -1.33411984735091  -0.36042148361001  -0.05673699447547
6   -1.06547287267427  0.99608180973499  -0.06326880017257
1   0.88770356885070  2.46353018277219  0.18113980438145
1   -1.94538268999589  1.73987368094327  0.28887165577071
1   -2.40866402808676  -0.64381366031197  0.31493909680674
1   -0.79760985304729  -2.23400733762734  0.04998905264320
1   1.97915125214132  -1.65513072607933  -0.05687617608436
1   2.42647685128238  0.68935037413893  -0.15842896126227





