%nproc=4
%Mem=2Gb
# TD=(NStates=1) B3LYP/6-31G(d,p)  

EMISPCT

0 1
6   0.30488835580262  1.36483481634380  0.14307530681389
6   1.36239564870805  0.36309258184101  -0.06152339475186
6   1.05852654823441  -0.96947565418187  -0.13602466414051
6   -0.37694796812438  -1.42501898818528  0.07147572902155
6   -1.38031794179900  -0.33585667697964  -0.02567365597181
6   -0.97746127839649  1.02004394064693  -0.05561721462657
1   0.61289171707114  2.38756915264646  0.39095639299983
1   -1.65653333463185  1.78339370966478  -0.58719302317841
1   -2.52794967190930  -0.83217235190244  0.03466830854068
1   -0.60003467565716  -2.58157387409993  0.80268755485304
1   1.90015957895063  -1.67967381917916  0.01980104589746
1   2.39976725584157  0.74151687177444  0.21767026750996





