%nproc=4
%Mem=2Gb
# TD=(NStates=1) B3LYP/6-31G(d,p)  

EMISPCT

0 1
6   0.27026449568545  1.39046697297438  -0.09890328169061
6   1.36127953241804  0.39563528163290  0.03048860329840
6   1.06116268975521  -1.09886417928209  -0.04978048264932
6   -0.30221725497955  -1.39763125235396  0.02498869997492
6   -1.35351624531469  -0.32270885420760  0.02914511340561
6   -1.05953483809923  1.05195234261459  0.03107153616399
1   0.65315367006118  2.36464519431154  0.29677358431088
1   -1.65759244729084  1.77738679714808  0.24986627413822
1   -2.36010100585067  -0.66194690783693  -0.44773293136436
1   -0.66328943696154  -2.46462497320280  -0.00991208236039
1   1.84817859350575  -1.90277271822036  0.31449350743997
1   2.46771524856282  0.69036068740507  0.04736173829487





