%nproc=4
%Mem=2Gb
# TD=(NStates=1) B3LYP/6-31G(d,p)  

EMISPCT

0 1
6   0.32651607152091  1.34113440104668  -0.02344804394349
6   1.39397470862017  0.44323388219977  0.03511548478401
6   0.96716851017862  -0.94811698236878  -0.00491069743530
6   -0.37865486299159  -1.42125470211209  -0.03780382237488
6   -1.38339520961212  -0.42442491942375  0.04134036161521
6   -0.94318984598244  0.98409367101805  0.00907417727842
1   0.60138965704237  2.56450673909135  0.03571895417120
1   -1.52025618704327  1.96573007028916  -0.16889922823879
1   -2.50781679219538  -0.70165329845059  0.00257718078079
1   -0.58724682012397  -2.43168112383896  -0.10484522666082
1   1.80201043712208  -1.83835558506088  0.16098799474488
1   2.43348638800157  0.74456635063371  -0.19023896042494





