%nproc=4
%Mem=2Gb
# TD=(NStates=1) B3LYP/6-31G(d,p)  

EMISPCT

0 1
6   0.36064049576904  1.36132401372381  0.00488689183850
6   1.34288120126368  0.41013217901526  -0.00985542226011
6   1.03175833812950  -0.97723045628951  -0.03169564269832
6   -0.38661286907312  -1.42397277755425  -0.01528470302214
6   -1.39196228165338  -0.38934825307658  0.02533788226149
6   -0.96301603350527  0.98247744435589  -0.03016267480498
1   0.69493159369976  2.35547547887367  0.37484909153028
1   -1.62863618606888  1.80355420106276  -0.22613359307330
1   -2.55664531118528  -0.59560504592729  0.10306674922632
1   -0.70238245760615  -2.57332984834232  0.39414055125996
1   1.83667743128191  -1.51970941816420  -0.09166535707591
1   2.45532121300701  0.95825301462128  0.22163869683537





