%nproc=4
%Mem=2Gb
# TD=(NStates=1) B3LYP/6-31G(d,p)  

EMISPCT

0 1
6   0.32489958605379  1.32650292974983  -0.01603278087476
6   1.42559202307365  0.40050115510328  0.05957169958223
6   1.02117105436704  -0.95438960043371  -0.00455649941735
6   -0.33989742797692  -1.35112242629135  -0.05010042841500
6   -1.45079958861962  -0.40672751537950  -0.01039952015515
6   -0.97339649690067  1.01260031588231  0.02766292961068
1   0.53267715672890  2.39692498901070  -0.10790052168898
1   -1.84773448309008  1.71031801155582  -0.17063828749052
1   -2.49980726727506  -0.76939955624652  0.35423138415010
1   -0.43784396122977  -2.25973033521240  -0.07144444293000
1   1.66877555496172  -1.94906948261232  0.20064313503393
1   2.51686236461648  0.55737869803726  -0.28888907159348





