%nproc=4
%Mem=2Gb
# TD=(NStates=1) B3LYP/6-31G(d,p)  

EMISPCT

0 1
6   0.35371027754761  1.38277108792825  -0.03189306075150
6   1.43351255380179  0.42147503398266  -0.01847737021773
6   1.02685886527419  -0.97823182192136  -0.05224154978883
6   -0.41930571655455  -1.37034857068133  0.05111243790797
6   -1.43341910163244  -0.42695457792391  0.05178155060539
6   -0.96657162243251  0.98863843013427  -0.01795607208478
1   0.56990250664041  2.54477673643018  0.19064077809011
1   -1.85461660786959  1.67856210748084  -0.12638483724522
1   -2.35532103546931  -0.84064781790578  -0.14229229374351
1   -0.70731453961259  -2.41210806069499  -0.14668116807622
1   1.92871225389745  -1.78499442766004  -0.05706329429624
1   2.49349897715479  0.61445896493775  0.52331569444059





