%nproc=4
%Mem=2Gb
# TD=(NStates=1) B3LYP/6-31G(d,p)  

EMISPCT

0 1
6   0.31024263206176  1.35255736859512  0.01032535200309
6   1.34236127296326  0.33223557251322  -0.00644561747569
6   1.05265627023589  -1.01618781981370  0.01944222509535
6   -0.38693659634885  -1.38675443685697  0.00833720244759
6   -1.30159325712241  -0.37399194087551  -0.05626072889423
6   -1.03138506565305  1.08268917886439  0.04219451003401
1   0.60046104830824  2.23430635681646  -0.20679026171229
1   -1.92668552110012  1.67376599748969  0.04826691643895
1   -2.39752948350536  -0.59480673424861  -0.05872737704580
1   -0.56036932935966  -2.41527010572486  0.17912365395581
1   2.03723593768819  -1.54292595936157  -0.19082514754122
1   2.39941231087003  0.76678213000874  -0.01149534130032





