%nproc=4
%Mem=2Gb
# TD=(NStates=1) B3LYP/6-31G(d,p)  

EMISPCT

0 1
6   0.38400528802501  1.36960854215514  -0.02337354504932
6   1.35908705094342  0.34612183754172  0.00191810083574
6   1.05402774414025  -0.97698588594151  0.01786953910394
6   -0.30456993664939  -1.35134225823693  -0.03697428576449
6   -1.43858409404003  -0.41294211712874  0.03335965184653
6   -1.06489979802899  0.99430436204766  0.00310760819680
1   0.64695874477937  2.40228137590666  0.03902014572773
1   -1.70622309575151  1.85574665212187  0.09515376321582
1   -2.48443959046318  -0.55583324426433  -0.13669094750704
1   -0.61757585523745  -2.25122393127162  -0.01639431204128
1   1.81195119061521  -1.73225831393740  0.15002843160051
1   2.45969282599264  0.65565956560780  -0.07519102630814





