%nproc=4
%Mem=2Gb
# TD=(NStates=1) B3LYP/6-31G(d,p)  

EMISPCT

0 1
6   0.36867841655239  1.45960566329490  0.12979573410149
6   1.31594098901949  0.37639598251532  -0.06719997288888
6   0.97703946641143  -1.00801690865798  -0.04623104810556
6   -0.35705517694177  -1.45964353720849  0.03831761427360
6   -1.28603584676729  -0.38484147664490  -0.03736352913535
6   -1.04504842536517  0.99612989550216  -0.05378371644015
1   0.68863865606482  2.58445079883254  -0.13605495110613
1   -1.65735963352027  1.92186018604986  -0.06872239204868
1   -2.39543578073392  -0.61022869830924  0.16073680723924
1   -0.50747360038952  -2.55526186128030  0.30619841574035
1   1.76097025965132  -1.71685115574777  0.03418128044391
1   2.38774685500750  0.63030699808685  0.20200405506093





