%nproc=4
%Mem=2Gb
# TD=(NStates=1) B3LYP/6-31G(d,p)  

EMISPCT

0 1
6   0.33115594695657  1.40241191828810  0.02944117267623
6   1.40344739460681  0.41649114635203  -0.07602752326570
6   1.04225796103975  -0.96431305170694  0.08772494713868
6   -0.37032958950067  -1.45585379266930  -0.03517772300876
6   -1.41894477077816  -0.39488130087054  0.03945195927002
6   -0.96739991795061  1.02125830643373  0.00094176980772
1   0.71630161841451  2.44675062792929  0.14186824052198
1   -1.86923595970397  1.70752165205478  -0.12081702394472
1   -2.60094852531652  -0.76625682572179  -0.31537070939534
1   -0.65402421716194  -2.49485674690886  -0.10590443288223
1   1.67821283039476  -1.66603960778491  -0.00275572694636
1   2.52213836768327  0.47652497709886  -0.23054391646868





