%nproc=4
%Mem=2Gb
# TD=(NStates=1) B3LYP/6-31G(d,p)  

EMISPCT

0 1
6   0.32891268989985  1.41885995252917  0.04118664103529
6   1.36933197274163  0.38103739033060  -0.06454608496731
6   0.99805194990108  -1.02232396859257  0.02794458625763
6   -0.34795371672368  -1.41248280372977  0.05521721533072
6   -1.35123349059456  -0.40381690976398  -0.05599349703658
6   -0.99089150512365  1.03399846772712  0.01259485646343
1   0.43289419043205  2.53658961841094  0.13883524287428
1   -1.75371077854441  1.89205645533588  0.14800266768251
1   -2.29619644797212  -0.78654602617256  -0.28051999849689
1   -0.64940713837310  -2.47851842252839  -0.05451061825019
1   1.72844923929033  -1.73926283243158  0.15090578752893
1   2.46053895130544  0.61763221277382  -0.32690788147537





