%nproc=4
%Mem=2Gb
# TD=(NStates=1) B3LYP/6-31G(d,p)  

EMISPCT

0 1
6   0.36188853676876  1.41717036622128  0.01067758911448
6   1.37976055502226  0.38576163427376  -0.03971248183532
6   1.02500497386139  -1.00375727069691  0.02800116105453
6   -0.36399041651878  -1.36741729568361  0.08977407117397
6   -1.37908411925308  -0.39593467852018  -0.12668161891454
6   -1.01792712972653  0.96911699109283  0.03989901840979
1   0.55237398197719  2.42392908328667  0.22186760138025
1   -1.82368567950850  1.73756671407290  0.40800630161905
1   -2.42344152406738  -0.65411654277014  -0.37610436694560
1   -0.54559883620673  -2.35582765556059  0.20179596807878
1   1.71566410812558  -1.82370403257427  -0.03205843458464
1   2.45164240334040  0.60373681054101  -0.45027350258765





