%nproc=4
%Mem=2Gb
# TD=(NStates=1) B3LYP/6-31G(d,p)  

EMISPCT

0 1
6   0.34426130718341  1.36630569485239  -0.00548626653228
6   1.35226954583710  0.37535213556419  0.02837825466903
6   1.05465782157140  -1.04717602378418  -0.01301632204367
6   -0.34071521360933  -1.39575590085798  0.06119406472434
6   -1.36032155620596  -0.34381623202353  -0.00479764070560
6   -1.07852375088510  1.00873666048105  0.00157622764413
1   0.77551708081603  2.39342440251687  0.00183350052446
1   -1.74982791689282  1.81055985375709  -0.10347790115805
1   -2.38444983395682  -0.59668643580442  -0.33265199047134
1   -0.54664814979981  -2.33457521506904  0.06576566351070
1   1.84703558584284  -1.61672782144534  -0.50773243090162
1   2.39015990625054  0.77899995607489  -0.05100785083534





