%nproc=4
%Mem=2Gb
# TD=(NStates=1) B3LYP/6-31G(d,p)  

EMISPCT

0 1
6   0.41297413175803  1.41489885124600  0.03339899223538
6   1.33730949454568  0.45155004068824  -0.08688761240641
6   0.97746966593488  -0.98447853970076  0.07190346648342
6   -0.34936887807346  -1.43019255507394  -0.00946776353352
6   -1.40474102484197  -0.42865790423747  -0.00030544982039
6   -0.97756693031508  0.98675912270460  0.00012932245639
1   0.58380927871537  2.54478129307197  0.06842533667966
1   -1.65546081273890  1.73753324677891  0.01309958940072
1   -2.42950399544663  -0.68518155174943  -0.10019746103037
1   -0.81783246283794  -2.55751068782025  -0.12111291080259
1   1.89240508481347  -1.62589681149133  0.02413166661856
1   2.49472024049078  0.49130021493346  -0.00422661153584





