%nproc=4
%Mem=2Gb
# TD=(NStates=1) B3LYP/6-31G(d,p)  

EMISPCT

0 1
6   0.31918870726573  1.37883706188482  -0.00435350242052
6   1.41032385983018  0.37660249999914  -0.03493824745720
6   1.06395658121544  -1.04837957136749  -0.01686470853398
6   -0.36629272166459  -1.42341548288428  0.01395010644933
6   -1.36034762402633  -0.36411298230726  -0.09441347073094
6   -1.03550579770291  1.05797657881528  0.08931727940006
1   0.51477058276482  2.57998224354570  -0.06105962813912
1   -1.99149736882461  1.78676701130632  0.31161898439547
1   -2.40293420102549  -0.80856923283664  -0.33711564424964
1   -0.73733840756508  -2.27226549291607  0.44467673486048
1   1.86123484477932  -1.85328178959414  0.38636334718414
1   2.41534176509737  0.77725786057968  -0.09802636904355





