%nproc=4
%Mem=2Gb
# TD=(NStates=1) B3LYP/6-31G(d,p)  

EMISPCT

0 1
6   0.33335130519069  1.42578133078415  0.03310673211183
6   1.26113066202015  0.41018141127662  -0.05171075155622
6   1.03856014375819  -1.03138070824359  -0.02345642835871
6   -0.36721697476366  -1.40173142417031  0.04986464238814
6   -1.32080639923798  -0.35927708771092  -0.01783144628520
6   -0.97078522422188  0.99740940034784  -0.01374153212745
1   0.88065818867361  2.45488258671163  0.39545434494061
1   -1.77439681193084  1.67889197817115  -0.18508538295707
1   -2.32491265681301  -0.71818086841480  0.02231623233881
1   -0.69197632862603  -2.60514894974952  -0.04978691197339
1   1.95789052298231  -1.96858372400408  0.23316093091358
1   2.28163608176623  0.72278903872342  -0.09122983428516





