%nproc=4
%Mem=2Gb
# TD=(NStates=1) B3LYP/6-31G(d,p)  

EMISPCT

0 1
6   0.35740571627017  1.38300808598799  -0.01299349985975
6   1.34863870327104  0.36127585601137  0.06222405145117
6   1.00125255484698  -1.00760630506935  -0.05946277339216
6   -0.32554744654039  -1.41244639446158  0.03486651257662
6   -1.35795231960110  -0.36741553811955  0.04168627087828
6   -1.01944334299082  1.03039134019793  -0.02191731388650
1   0.59138306928897  2.46684092443415  -0.20732181765592
1   -1.94667855709094  1.81835162709145  -0.21399450892457
1   -2.32113025433394  -0.77910680686503  0.12910574609829
1   -0.68694463529189  -2.36781067721639  -0.34962705860462
1   1.92836689991339  -1.68359418123777  -0.13054927025419
1   2.38819059944800  0.68906681375201  0.16553185651641





