%nproc=4
%Mem=2Gb
# TD=(NStates=1) B3LYP/6-31G(d,p)  

EMISPCT

0 1
6   0.34353918203137  1.44475058763054  -0.00435123222026
6   1.45265894831134  0.34204987915702  -0.00043821287809
6   0.99123507170078  -1.02323903663594  0.02326539809329
6   -0.33859833732002  -1.32519961522309  -0.06805055427824
6   -1.39135357870448  -0.40818344164908  0.03415848008025
6   -1.06032061851346  0.97495639411744  -0.00805447968148
1   0.51020371214094  2.44792611040107  0.02134015219004
1   -1.72817284938565  1.82641430618199  -0.00549064840275
1   -2.50024973835049  -0.89417469570308  0.11114021189596
1   -0.61215148757360  -2.32017637313685  0.06957108376032
1   1.80018852698674  -1.76515069831356  0.15440596941405
1   2.49805339104357  0.63792162412409  -0.03021255676907





