%nproc=4
%Mem=2Gb
# TD=(NStates=1) B3LYP/6-31G(d,p)  

EMISPCT

0 1
6   0.33372283038343  1.31310109756127  0.00658747064085
6   1.42501698802761  0.33328329477299  -0.02711527600644
6   1.02683056640475  -0.93179920318406  0.02928777956018
6   -0.32703210347567  -1.35015742210192  0.04044983080117
6   -1.43665797140576  -0.39981979027434  -0.09824490489045
6   -1.02697544834971  1.01278165391501  0.04759669466633
1   0.77898773035694  2.32684707974751  -0.12031020208856
1   -1.91277104582134  1.68653918749803  0.21481733286440
1   -2.41743188381397  -0.54789687401002  -0.06161295898538
1   -0.74297548803170  -2.39285231131379  0.19956664281686
1   1.92332128145780  -1.54839051488697  -0.22619442132703
1   2.41302339314623  0.74620117549828  0.01338114484055





