%nproc=4
%Mem=2Gb
# TD=(NStates=1) B3LYP/6-31G(d,p)  

EMISPCT

0 1
6   0.33139038897018  1.37034959577446  -0.05449559453583
6   1.40234020555740  0.38976546365085  0.07783192179009
6   1.03999157091130  -0.98554170532462  -0.02934404301830
6   -0.36573531182683  -1.41721660187521  -0.02273157192088
6   -1.38068980849884  -0.33339933786982  0.05395101741332
6   -0.99021264962437  0.96755765822301  0.00489582926008
1   0.47828319015087  2.41700793881567  0.00356680332531
1   -1.88809713855405  1.64363662072256  -0.19847913501273
1   -2.21291627767686  -0.61805328709523  -0.05189209265757
1   -0.78187237421822  -2.36277212284695  0.01384542263923
1   1.68613529321594  -1.90575241385582  -0.18867904511989
1   2.34297027703655  0.87389107721210  0.01015740731639





