%nproc=4
%Mem=2Gb
# TD=(NStates=1) B3LYP/6-31G(d,p)  

EMISPCT

0 1
6   0.34494248332592  1.37374981845282  -0.01443843498984
6   1.36615098851176  0.39879913758822  0.11113213589445
6   1.09290788269128  -1.02964359239832  -0.11083887527156
6   -0.41956123935081  -1.33420514662563  0.04151328148109
6   -1.34633852075323  -0.36733436274026  0.02141190145203
6   -1.02551928023339  0.94744981544085  -0.04075908988021
1   0.54119946899187  2.40089773597426  -0.36566803805847
1   -1.86353536967721  1.66347069496135  0.04463043743030
1   -2.43711106850920  -0.51310009978915  0.20237943640161
1   -0.64609218940898  -2.34945649392077  -0.09924633311101
1   1.84962684534447  -1.82828994474468  -0.13967936190366
1   2.42978918441876  0.72130698005005  0.24795397053302





