%nproc=4
%Mem=2Gb
# TD=(NStates=1) B3LYP/6-31G(d,p)  

EMISPCT

0 1
6   0.33117430537444  1.40170990152467  0.15073467192208
6   1.33069413438188  0.35956000621968  -0.08092646111833
6   1.09199984454057  -0.97601079318538  -0.07299978327023
6   -0.35491030414144  -1.40352171677773  0.08342568756692
6   -1.40678778641438  -0.42413183508158  0.04933166876928
6   -0.98037905291236  1.03184809070335  -0.12474880143433
1   0.75550033351954  2.44377329434177  0.27068819803999
1   -1.89308015412542  1.85750603026368  -0.31062659678992
1   -2.42113968770369  -0.56518567089643  -0.09719515532826
1   -0.62546662864282  -2.42397551915451  -0.06589385050032
1   1.72473647565322  -1.75739323769038  0.15771796977702
1   2.32640586952229  0.56106153674776  -0.02053332514877





