%nproc=4
%Mem=2Gb
# TD=(NStates=1) B3LYP/6-31G(d,p)  

EMISPCT

0 1
6   0.35461899733405  1.41129613136446  0.02503707703580
6   1.37299111578972  0.36600586897804  -0.04272269424987
6   0.94321966039929  -0.98296648611924  -0.00328267435738
6   -0.33733965132835  -1.37567210189560  -0.02956316131646
6   -1.33637089815243  -0.37233952262229  0.02215409669907
6   -1.02471599923614  0.98207845076853  -0.01731368562607
1   0.75910353325353  2.39857875275543  0.16964662261365
1   -1.91730946304018  1.65946654006706  -0.11168880422926
1   -2.40482074978287  -0.77709683034164  0.09392375260762
1   -0.37226618995106  -2.47286954683214  0.14138388193173
1   1.68503417212331  -1.70846726772468  0.19663506822481
1   2.53469504234105  0.60400118706537  0.13453305032180





