%nproc=4
%Mem=2Gb
# TD=(NStates=1) B3LYP/6-31G(d,p)  

EMISPCT

0 1
6   0.36388505154150  1.39022324565541  0.04064606458394
6   1.38178959326421  0.38171469450928  -0.03037262970563
6   1.05985652373471  -1.02299698669183  0.01114485177213
6   -0.35467920527171  -1.40670483492607  0.03248202166039
6   -1.38899847577306  -0.38613301194573  -0.05142675998192
6   -1.08585488843713  1.01987806805897  -0.03551075216894
1   0.71320762432182  2.40625921528782  0.29724707415501
1   -1.69040228520070  1.90827707101035  0.31986914353626
1   -2.45825257910707  -0.62571700757763  -0.10847756486002
1   -0.58253026571473  -2.38327211022109  0.19820153810940
1   1.91748339548574  -1.62198626694627  0.14514670383004
1   2.36230149855520  0.61560382423222  -0.40048910895713





