%nproc=4
%Mem=2Gb
# TD=(NStates=1) B3LYP/6-31G(d,p)  

EMISPCT

0 1
6   0.35194501068255  1.41678351832560  -0.02950388950775
6   1.36797743786881  0.36450182497290  0.00149605632741
6   1.02029417982347  -0.98521817552620  -0.02312372107605
6   -0.38518882892574  -1.36302785942094  -0.04782006297359
6   -1.35731129424227  -0.40597861731944  0.05162181095556
6   -0.97877285674689  0.99669097959588  -0.01251413463804
1   0.46558275416613  2.48633619479069  0.40052477666687
1   -1.91204960780836  1.66174181621388  -0.25508557144075
1   -2.43835804804796  -0.70768324623029  0.12919192035620
1   -0.38334460790595  -2.41668447106297  0.24973276460447
1   1.66658848308255  -1.89219166210281  0.10549096341051
1   2.36801156133765  0.57626751623517  0.18800167220620





