%nproc=4
%Mem=2Gb
# TD=(NStates=1) B3LYP/6-31G(d,p)  

EMISPCT

0 1
6   0.36789133205988  1.35782896836471  0.07327531062999
6   1.34702833578632  0.38530676630345  0.05230708868677
6   1.04391291774070  -1.01863443665021  -0.08851506414301
6   -0.35356078997712  -1.35786117606530  0.00213332034255
6   -1.39429203149110  -0.36740818949555  0.09701194970642
6   -1.00030252840878  0.98425312738361  -0.14998611371435
1   0.51389549950994  2.43593596822045  0.02637047231404
1   -1.76950980536008  1.78225419822069  -0.21175801819268
1   -2.44723488753478  -0.74523584314614  0.21462138262142
1   -0.91814340769510  -2.49446824993225  0.27424720239638
1   2.10363782162610  -1.59524606559733  -0.40480094543218
1   2.41660121000813  0.79769117742245  0.28954718901184





