%nproc=4
%Mem=2Gb
# TD=(NStates=1) B3LYP/6-31G(d,p)  

EMISPCT

0 1
6   0.32068230264201  1.36161326855350  -0.01730389929391
6   1.40667285082594  0.40954576452201  0.05780023510671
6   1.03022460761268  -1.04056214330439  -0.03673841171523
6   -0.33917558918033  -1.35789238732187  -0.00572887420792
6   -1.41028191876256  -0.39910486741855  0.07414652480206
6   -1.02604887606015  1.04914179397783  -0.02966362153872
1   0.62723015453960  2.43223636905238  0.10415245461540
1   -1.78046523651218  1.88750979627614  -0.40247567696699
1   -2.44533067231085  -0.91846680467618  0.03964417393963
1   -0.54732577595836  -2.40835717022430  -0.12328927426512
1   1.83107816605296  -1.79656613867837  -0.19411549996871
1   2.52050327212725  0.56434486498976  -0.00492353711178





