%nproc=4
%Mem=2Gb
# TD=(NStates=1) B3LYP/6-31G(d,p)  

EMISPCT

0 1
6   0.31986121196834  1.42585174925455  0.02738513599644
6   1.42718272004650  0.37156069055969  0.03363384772292
6   1.00894616320215  -0.99842797150935  -0.02172749289486
6   -0.35430812497441  -1.36809082935123  -0.02018415294528
6   -1.41448381336813  -0.41670478541237  0.03766520390290
6   -1.01219472829661  0.99712745307842  -0.05560233459603
1   0.69146077149883  2.49144971094820  0.03520643449032
1   -1.65947247048755  1.83415020052574  -0.10287210285934
1   -2.42832773284643  -0.79479891761589  0.08129931848791
1   -0.53865370887506  -2.50178945980618  0.20171089325121
1   1.71477018340413  -1.82442134395190  -0.19424464654774
1   2.47644135385608  0.68685525186885  -0.03710339503226





