%nproc=4
%Mem=2Gb
# TD=(NStates=1) B3LYP/6-31G(d,p)  

EMISPCT

0 1
6   0.33764522760034  1.39140849479257  -0.01887771006524
6   1.37505542087687  0.32271622512759  0.03400211000623
6   1.00617023033116  -0.95483409542123  -0.00553695658383
6   -0.35030004777905  -1.33320214811919  -0.02203192959068
6   -1.38127564294056  -0.43259005304493  0.02862033935612
6   -0.98401869160763  0.99782728263103  0.02039358051802
1   0.58486944367484  2.49494395739935  -0.27501561770273
1   -1.85752815844003  1.84126779106751  -0.20107571135727
1   -2.46998268433946  -0.73782798286100  0.09304739108277
1   -0.48913215080362  -2.36932024245970  -0.14805566553121
1   1.75009120224272  -1.78833645517091  -0.13382068452149
1   2.39827638704336  0.65386970504927  0.16512736160814





