%nproc=4
%Mem=2Gb
# TD=(NStates=1) B3LYP/6-31G(d,p)  

EMISPCT

0 1
6   0.36329785251607  1.41208420590380  -0.04088569712494
6   1.39792168390396  0.35277405434715  0.02634686597971
6   1.02898302016431  -0.98897577717836  0.01523852421819
6   -0.36353964515638  -1.40945283701941  -0.04251233261411
6   -1.37915557976067  -0.32818684693649  0.00741162692399
6   -1.03551740374443  0.97375440332260  0.01681598601249
1   0.59087545814565  2.45395721255723  -0.11998371310279
1   -2.00903066555082  1.75382384544061  0.32683251455008
1   -2.31488132858277  -0.85615649073858  -0.19191576929720
1   -0.76102940122817  -2.49069110402276  0.21185231151359
1   1.94196293996933  -1.68837670220652  0.00828730895359
1   2.42036742160332  0.67714653049163  0.00524537764644





