%nproc=4
%Mem=2Gb
# TD=(NStates=1) B3LYP/6-31G(d,p)  

EMISPCT

0 1
6   0.36593361498213  1.39379080856962  0.06241311361082
6   1.38206254368915  0.34098675787772  -0.07327590918223
6   1.09850531358147  -1.01645947434070  0.07192399477050
6   -0.33720847958418  -1.29415822389248  -0.03103570817924
6   -1.47311964895536  -0.39392543966489  -0.10727565826304
6   -1.07939251011675  0.99497241268101  0.06259554943252
1   0.84245322040982  2.49741189457259  -0.35468324915110
1   -1.91881344791147  1.71639047058780  0.43293580958358
1   -2.39055894855640  -0.67831336114987  -0.03281128552234
1   -0.46825035641625  -2.47448202103201  0.06775904370473
1   1.90790374131808  -1.93558792135654  0.52981743848964
1   2.50763191786355  0.63407991656695  -0.44274864702549





