%nproc=4
%Mem=2Gb
# TD=(NStates=1) B3LYP/6-31G(d,p)  

EMISPCT

0 1
6   0.38332635410164  1.35600630789194  0.01978795262801
6   1.36989696183233  0.38548614686411  0.04746054723280
6   1.04152661086402  -0.99554029044084  -0.06722542702751
6   -0.34585005696262  -1.35106707183945  0.00825909446290
6   -1.34637552117405  -0.42441936548752  0.06401399316847
6   -1.07876883595959  1.01773992547328  -0.05379131475999
1   0.77543275951334  2.41490906942247  -0.27723075060771
1   -1.86597262619056  1.66146823603089  -0.15965483417381
1   -2.57549512667999  -0.65585946373916  0.09895825534037
1   -0.74620095692906  -2.22976203683508  -0.05993842160905
1   1.68462137180624  -1.72928131802733  -0.20515953961674
1   2.43144622448081  0.64942813258549  0.35011506603610





