%nproc=4
%Mem=2Gb
# TD=(NStates=1) B3LYP/6-31G(d,p)  

EMISPCT

0 1
6   0.32087312866136  1.38779544112643  -0.06394223984360
6   1.33813083256277  0.36760253382784  0.10559465571834
6   1.02804434375804  -0.98447581650296  -0.02319951554991
6   -0.31997231526499  -1.39307081905621  -0.01324272477451
6   -1.39871894852510  -0.34948345646139  0.01429245851480
6   -0.98178823498391  1.02895340833518  -0.02477139956946
1   0.63339524355185  2.25693520755954  0.03129224584703
1   -1.78260092746860  1.60326673487040  0.05904111937745
1   -2.43562367999014  -0.77006112039541  0.31867569326803
1   -0.56846852227820  -2.49347433343113  -0.07446726113110
1   1.86967854631705  -1.82060721478338  -0.20735403520733
1   2.46270277543698  0.60415943852507  -0.05519196692812





