%nproc=4
%Mem=2Gb
# TD=(NStates=1) B3LYP/6-31G(d,p)  

EMISPCT

0 1
6   0.31520513434852  1.39908673099379  0.03337363823010
6   1.42224916589880  0.31869487776941  0.06593003147878
6   1.00081143544975  -0.94307923930279  -0.06828819313880
6   -0.34581990710723  -1.36873122052982  -0.02527207841792
6   -1.31439345474796  -0.40456863704598  0.11642020629801
6   -1.10365880038244  1.01077320134821  -0.09049577014759
1   0.68570164134363  2.37092881758564  -0.13468275527074
1   -1.68115620239360  1.90128718699519  -0.38723770825601
1   -2.35680705147028  -0.72034446105307  0.16589201488216
1   -0.64585763623112  -2.37120889446338  -0.04768388882234
1   1.72906426689983  -1.88593080288446  -0.22986936214487
1   2.49756657434238  0.58669332222623  0.20077729747665





