%nproc=4
%Mem=2Gb
# TD=(NStates=1) B3LYP/6-31G(d,p)  

EMISPCT

0 1
6   0.29339741743858  1.32499554451658  -0.01125532034673
6   1.46476011070578  0.37600560395930  -0.06373420815085
6   1.05260970102622  -0.93255376148784  0.12403415145597
6   -0.38618241525758  -1.41374164943402  -0.00700247632121
6   -1.42518818001494  -0.35052789555251  -0.07094747759039
6   -1.01087247693118  0.96506951049123  0.06181362622989
1   0.52804287559534  2.50619026079577  -0.13911118953111
1   -1.55792533983190  1.80136844490474  0.29981394399916
1   -2.52917238051694  -0.54651586662819  -0.10806178321219
1   -0.58098205098306  -2.43793934594195  -0.21910412334607
1   1.75540933988427  -1.79519631851120  -0.07337125271812
1   2.54573317037168  0.82244905363341  -0.20992296397279





