%nproc=4
%Mem=2Gb
# TD=(NStates=1) B3LYP/6-31G(d,p)  

EMISPCT

0 1
6   0.33932011667976  1.37228812790315  0.02987806299436
6   1.43211213727511  0.42136747388606  -0.01039455881779
6   1.02210561778195  -0.98785090128428  -0.06683589668914
6   -0.38443701001607  -1.38576198987306  0.10644912332919
6   -1.37575867388604  -0.36204022307697  -0.10359279845429
6   -1.00503778038100  0.95639227562588  0.01812559997789
1   0.55207676196974  2.36097611597972  0.27268874252221
1   -1.88975309790562  1.68567558380505  -0.03891979896245
1   -2.50193770171424  -0.68173500384150  -0.04412415256089
1   -0.81132929489518  -2.51190077730673  0.31229728414515
1   1.82456565705816  -1.60586160563667  -0.02835206174232
1   2.51657114922237  0.55557222359957  -0.11320428871810





