%nproc=4
%Mem=2Gb
# TD=(NStates=1) B3LYP/6-31G(d,p)  

EMISPCT

0 1
6   0.35768231107942  1.36889893692912  -0.02977960078631
6   1.31888831163419  0.42320539891510  0.09345908918865
6   1.00439863783228  -1.03265052556840  -0.02340629605686
6   -0.35215432897440  -1.36119345773897  -0.08149309318135
6   -1.31970558950894  -0.36846158609696  0.08538965626700
6   -0.99363741711024  0.95562408624708  -0.08974921858735
1   0.49464938691362  2.53131915962782  -0.00487087343322
1   -1.73122791374460  1.75099979333181  0.21883807672849
1   -2.41764814000188  -0.65926862140042  0.26906099416795
1   -0.71374447137707  -2.37797609124201  0.16857731211428
1   1.76368907424231  -1.71425713225014  -0.07875487018807
1   2.45046430044786  0.60862525634752  0.05005802374542





