%nproc=4
%Mem=2Gb
# TD=(NStates=1) B3LYP/6-31G(d,p)  

EMISPCT

0 1
6   0.29539685205360  1.43745780271597  0.03777246781573
6   1.35676397203126  0.35493982929230  0.00023351073707
6   1.03412717046396  -1.03843400797440  -0.03731536523768
6   -0.35183049884227  -1.33587925383596  -0.00669448854862
6   -1.33094255190775  -0.34771359468593  -0.00805847616115
6   -1.03934458226928  0.91567185583191  0.01787642029156
1   0.55337387694189  2.44467493531424  -0.40035025641369
1   -1.67573871780458  1.81790114072324  0.16140144326958
1   -2.36655259319911  -0.52552241250191  -0.25959599800071
1   -0.51908919083601  -2.33404705878913  0.23098259227579
1   1.72422820446242  -1.73567294088526  0.18586124938852
1   2.68045355502446  0.49749371256917  0.02956469455608





