%nproc=4
%Mem=2Gb
# TD=(NStates=1) B3LYP/6-31G(d,p)  

EMISPCT

0 1
6   0.35034557200732  1.35199777106935  -0.00117492308739
6   1.42334754746234  0.40423709664154  -0.03582208058362
6   1.01968426753420  -0.99487245014983  0.02506077150832
6   -0.37641432226022  -1.36129312731793  -0.00507696262677
6   -1.38878376753684  -0.37802778401198  -0.00369570760334
6   -1.01374761470910  0.99923463545805  0.05826820319844
1   0.40345926551016  2.48734938822246  -0.22946615285012
1   -1.69953936047134  1.66264157041537  0.12855562142660
1   -2.45723774076357  -0.64694987538254  -0.48118924280975
1   -0.55019496254789  -2.65149990028978  -0.02893476285534
1   1.78685805712760  -1.67221917611053  0.19196970517946
1   2.35359773058913  0.56851117754637  -0.09425627910127





