%nproc=4
%Mem=2Gb
# TD=(NStates=1) B3LYP/6-31G(d,p)  

EMISPCT

0 1
6   0.34374732149286  1.37477050654755  0.02008294669543
6   1.41753428508278  0.42737319344405  -0.01412128007821
6   1.01046833261839  -1.01320007260469  -0.06812031447452
6   -0.35922861804400  -1.35589287285771  -0.01687075685849
6   -1.38453236960949  -0.40833262860063  0.09216752185664
6   -1.00173420789277  0.96442603998642  -0.05771765117264
1   0.49736026162645  2.45321032499109  -0.01298729276186
1   -1.70964352933099  1.83248973683105  -0.31879638549361
1   -2.40315418238358  -0.68659885033291  0.27437091460679
1   -0.80017667311390  -2.46205867247403  -0.09578366039191
1   1.64366834054725  -1.71783777397292  0.11457985030273
1   2.47340643243143  0.66780248843892  0.64785953883897





