%nproc=4
%Mem=2Gb
# TD=(NStates=1) B3LYP/6-31G(d,p)  

EMISPCT

0 1
6   0.32284346225276  1.31473197357306  0.06823570839666
6   1.42106930566269  0.40571763788365  -0.06468662918971
6   1.04497749761727  -0.98507458967706  -0.02578825306443
6   -0.32477020371971  -1.34826885857433  0.15567555328818
6   -1.45461032355614  -0.35686412078658  -0.09771938015316
6   -1.02537117579132  0.94834194937057  -0.02158954285718
1   0.71681249769816  2.23972249189124  0.33011930689861
1   -1.66987261451804  1.97199007360360  -0.02388781758708
1   -2.42691477847749  -0.68831389576181  -0.11322978133293
1   -0.67188914387512  -2.27920189169317  -0.05905099067211
1   1.84191025613498  -1.71412276171089  -0.17822322765075
1   2.41439011768599  0.72918426153980  -0.14881339406722





