%nproc=4
%Mem=2Gb
# TD=(NStates=1) B3LYP/6-31G(d,p)  

EMISPCT

0 1
6   0.35281459430532  1.40375989635831  0.04907471601106
6   1.33327265042334  0.37212668488526  -0.02356407889495
6   0.97368537409466  -0.93371848265321  -0.01618828028934
6   -0.35347605081328  -1.45960813426430  0.05225459790096
6   -1.33897957054976  -0.39143819197273  -0.08709115248680
6   -0.97021705978827  1.00226642199933  0.01099251609535
1   0.69528078200175  2.55901931958422  -0.10474064062007
1   -1.84383592369931  1.73005742522524  0.09285013621953
1   -2.38065737913069  -0.58380203058686  0.12932919207117
1   -0.64846684612498  -2.47478635514063  0.11528595060803
1   1.87071556550675  -1.77659020448260  0.01109137659493
1   2.34709683258401  0.63012763621969  -0.04536369880262





