%nproc=4
%Mem=2Gb
# TD=(NStates=1) B3LYP/6-31G(d,p)  

EMISPCT

0 1
6   0.33256739533453  1.42421295632042  0.07245046348937
6   1.41161787812329  0.39236863892518  -0.00813550261542
6   0.98185016917668  -1.00494048288755  -0.02811688707107
6   -0.39930751837576  -1.38948307955149  0.06377103546595
6   -1.32821887003365  -0.41446804862408  -0.00724335691909
6   -1.01509964045288  0.96919178653073  -0.03681563722892
1   0.54074429849549  2.53951939543860  0.08882666428046
1   -1.64846785750757  1.69790413159168  -0.30931659077369
1   -2.32230168856837  -0.51025892619456  -0.02422800511447
1   -0.57910615408056  -2.43454676007492  -0.13145036316359
1   1.69862462296922  -1.94615655129379  -0.09239253139449
1   2.48452357917174  0.90755410441642  -0.29555474715219





