%nproc=4
%Mem=2Gb
# TD=(NStates=1) B3LYP/6-31G(d,p)  

EMISPCT

0 1
6   0.34470211905656  1.43033455004395  0.05071321519986
6   1.46724603641858  0.42468723987850  -0.07676834362890
6   0.96055971928059  -0.99405692553664  -0.00180533780730
6   -0.39414699080937  -1.32984061016893  0.06329229969783
6   -1.43430212279479  -0.41440056350641  -0.08049418979156
6   -0.94765489461030  0.91140351774469  -0.00303494746314
1   0.60431542130891  2.45521737871207  0.47048106065557
1   -1.77239907596206  1.64849430271053  -0.03832504857708
1   -2.46001524440331  -0.82568132805369  0.01890924387395
1   -0.68572225011659  -2.52867880024454  0.25838086439608
1   1.87736553812388  -1.87912362764656  0.08353655827772
1   2.46513859253708  0.80087498925800  -0.13566352678571





