%nproc=4
%Mem=2Gb
# TD=(NStates=1) B3LYP/6-31G(d,p)  

EMISPCT

0 1
6   0.35180233473255  1.44819109163300  -0.02747120457212
6   1.38337575039886  0.37064102724431  0.11670447400816
6   1.04563743210880  -1.05259500122601  -0.06258131071712
6   -0.34958881707055  -1.38912822288908  0.02645011144649
6   -1.38037313058943  -0.43047906925213  0.03524172501807
6   -1.05701194678178  1.05748776643938  -0.04811096468513
1   0.66820116893506  2.51486714937173  -0.10282126790582
1   -1.95539739168779  1.89454535538257  0.04710576016776
1   -2.45086418781360  -0.70559118989226  0.02135602801898
1   -0.54734264471811  -2.46365586297058  -0.12235312715066
1   1.89602487647590  -1.68959839036823  -0.21296133405076
1   2.41731399958940  0.40889169439260  -0.18018540922363





