%nproc=4
%Mem=2Gb
# TD=(NStates=1) B3LYP/6-31G(d,p)  

EMISPCT

0 1
6   0.34195988864170  1.36602193565835  0.06685412609719
6   1.41179982741271  0.40619333875675  -0.00619940402139
6   1.00643239912326  -0.96154739006302  -0.03753310985561
6   -0.38280791287162  -1.39197281945133  0.08950679403507
6   -1.37823430147599  -0.40571401553012  -0.00734682155587
6   -1.02183885158295  1.01116730663424  -0.08214121786222
1   0.63109549802199  2.45512934848475  0.06499128796050
1   -1.65270351254604  1.65863976014119  0.05922230102147
1   -2.42032768632400  -0.66774269309595  -0.16541862599353
1   -0.52504059604032  -2.49485784607640  0.14108504557409
1   1.71963159581364  -1.84187377588518  -0.46530617382602
1   2.50954653030852  0.63916263824504  0.04916381848885





