%nproc=4
%Mem=2Gb
# TD=(NStates=1) B3LYP/6-31G(d,p)  

EMISPCT

0 1
6   0.31745369092624  1.31742174884406  0.03081580011552
6   1.37386360027018  0.37017366091193  0.03262265762515
6   1.08907870696215  -1.00751730868148  -0.04306968897632
6   -0.33698591907494  -1.35007111225725  -0.03691524928302
6   -1.37252637848291  -0.34957588245436  0.11645574064406
6   -1.08191260803435  1.03999378527815  -0.06540068439068
1   0.67506993931212  2.32118180413135  -0.13117607249361
1   -1.82206179895229  1.73100695243499  -0.40373207537565
1   -2.36017717021132  -0.51917673571947  0.11079758229471
1   -0.55601862493227  -2.51788077778722  -0.17713284160024
1   1.80118973941705  -1.84831794247028  -0.04246549678723
1   2.40231056906736  0.61809303014708  0.17208103558766





