%nproc=4
%Mem=2Gb
# TD=(NStates=1) B3LYP/6-31G(d,p)  

EMISPCT

0 1
6   0.34789925586107  1.41809240337813  -0.01183395113527
6   1.38908127796997  0.38734994079983  -0.03256196722932
6   0.98270984680483  -1.03701753438482  0.07566259569380
6   -0.35310924492795  -1.42974365749855  -0.01912260812112
6   -1.32971339515340  -0.38534732488587  -0.00080548315276
6   -1.02333096047072  1.02263556149166  0.02803667448690
1   0.65902180465242  2.39111228268548  0.01331918762949
1   -1.92428247453173  1.68890898386894  0.06029904019996
1   -2.39430196982696  -0.55982118447824  -0.12881716575170
1   -0.71208345112742  -2.51074167293276  -0.30916867666048
1   1.82403993935949  -1.63890500981178  0.11862622718319
1   2.37870516274834  0.88250344560927  -0.29239784001082





