%nproc=4
%Mem=2Gb
# TD=(NStates=1) B3LYP/6-31G(d,p)  

EMISPCT

0 1
6   0.40413776271955  1.40215616194218  -0.00932745515044
6   1.49555085073550  0.45281050731581  -0.00437575983715
6   0.99511441699805  -0.99967994723401  0.02864744956616
6   -0.39229031484865  -1.40835739609278  -0.03126460614736
6   -1.48175511777496  -0.40148909878008  0.02118217114784
6   -1.01018028822373  0.96271194357853  -0.01460726996291
1   0.60300857581640  2.53994249551737  0.14267292650213
1   -1.94480098070378  1.56595353374498  -0.06305140289159
1   -2.46226178906375  -0.64402820567994  0.13048618353655
1   -0.65771582110727  -2.54542720523230  -0.02386229043365
1   1.93745870260812  -1.72862228701292  -0.03996660248886
1   2.42037209369323  0.70706985717974  -0.01310138564529





