%nproc=4
%Mem=2Gb
# TD=(NStates=1) B3LYP/6-31G(d,p)  

EMISPCT

0 1
6   0.36765811046589  1.33262330832517  0.00827832021923
6   1.42160294858130  0.42078229683497  -0.04612066371752
6   0.98328134735237  -0.98388780561558  0.01530282383373
6   -0.32853453114361  -1.36263746428089  0.04187727436864
6   -1.41991030563776  -0.35694291440954  -0.05000275928840
6   -1.02489280699278  0.96916495792313  0.06992941101351
1   0.49648400763390  2.33460858451760  -0.13823684733786
1   -1.66173270096411  1.76062183127991  -0.03042845482051
1   -2.50781076230059  -0.83705004728834  -0.32202685755913
1   -0.58394500569401  -2.32482262668407  -0.04428898520307
1   1.86368475324406  -1.84429913050058  0.03084563761163
1   2.42236198607060  0.70220096748471  -0.03248871388989





