%nproc=4
%Mem=2Gb
# TD=(NStates=1) B3LYP/6-31G(d,p)  

EMISPCT

0 1
6   0.35974400343854  1.33990183280612  0.00274457839822
6   1.43625243754967  0.33861476274618  -0.01177370094107
6   1.05905166248396  -0.99797326801995  -0.01926176694569
6   -0.36479064297969  -1.32322364685189  0.01867225109513
6   -1.37433307351633  -0.36625355342184  -0.01153228138411
6   -1.11747982297532  1.00613803389974  0.02237700772919
1   0.73947211925640  2.38849653423841  -0.04999487749584
1   -2.02363407258141  1.66798168203710  -0.08160991687220
1   -2.40007598993675  -0.74261928730183  -0.01699099356615
1   -0.72711329610187  -2.42437155677454  -0.05799455788688
1   1.83889996432340  -1.58347410055270  0.10786320921989
1   2.56021893371320  0.71986881990083  0.08195993459505





