%nproc=4
%Mem=2Gb
# TD=(NStates=1) B3LYP/6-31G(d,p)  

EMISPCT

0 1
6   0.31855318840327  1.34422909708630  -0.01206352765942
6   1.35455502742464  0.39902996066457  0.06925251824908
6   1.06772227716150  -1.05290285198301  -0.05964869935280
6   -0.36551107810307  -1.33897250744854  0.02693384206558
6   -1.38841989839312  -0.39779395674795  0.00509075654359
6   -1.00623628766502  1.03319926149154  -0.00162512550777
1   0.63219424058036  2.49457752553180  -0.15760665946132
1   -1.67236527355472  1.78312457927679  -0.03377191440537
1   -2.38321651905182  -0.69895350032610  -0.10837661756944
1   -0.49861895599219  -2.40863973233626  0.10534559235023
1   1.76164006280147  -1.70119647148847  -0.17775921531870
1   2.39384088745562  0.69390282887705  -0.00968529821814





