%nproc=4
%Mem=2Gb
# TD=(NStates=1) B3LYP/6-31G(d,p)  

EMISPCT

0 1
6   0.35024814598995  1.44476548268033  0.04512624894914
6   1.36276508296514  0.34209394870080  -0.01092332902212
6   1.06405100112404  -1.01909862007304  0.02116241679180
6   -0.32477993008127  -1.40349913855528  0.04069845459268
6   -1.40266019589868  -0.36860511321552  -0.03024409048817
6   -1.04056838465010  1.00228833284453  0.01181231568462
1   0.75348299707707  2.53877749946885  0.01531661870907
1   -1.83135048226530  1.67462838913153  -0.23822897719732
1   -2.41732170441822  -0.81034387171089  -0.10382205354655
1   -0.71116089638151  -2.22208255955094  -0.19305452706188
1   1.78071727911121  -1.75132346407616  -0.07313309877471
1   2.31685127470161  0.58282530186988  -0.46805952107059





