%nproc=4
%Mem=2Gb
# TD=(NStates=1) B3LYP/6-31G(d,p)  

EMISPCT

0 1
6   0.38389876336916  1.39791825008912  -0.04707138319622
6   1.35074580620519  0.35887210283872  -0.02560385630410
6   1.03282283780591  -1.02380586920900  0.03830107746315
6   -0.36160125104702  -1.31910439342569  -0.02788326494950
6   -1.35908584152053  -0.40354305799410  0.07023921529261
6   -1.06743229390012  1.03010495824509  -0.01699917027018
1   0.71628559390711  2.56955270083201  0.24904063675010
1   -1.88548504144884  1.62824445851591  -0.10817311274460
1   -2.33963488424591  -0.91859887959163  0.00862506771894
1   -0.59038957864102  -2.47191978476999  -0.21907647560849
1   1.88755760927563  -1.82228036679363  -0.09903267486530
1   2.41932370562120  0.57798960117743  0.29184344559396





