%nproc=4
%Mem=2Gb
# TD=(NStates=1) B3LYP/6-31G(d,p)  

EMISPCT

0 1
6   0.35819518336651  1.41032052266052  -0.01536609730516
6   1.40252045318332  0.41833165150295  0.00726602292701
6   0.99922419503378  -0.99796937469520  -0.06052029398522
6   -0.38823168920338  -1.40764411203937  0.02468573482709
6   -1.40538357643462  -0.42514254248761  -0.01056681766219
6   -1.00080900622066  0.99852552695426  0.02694959124906
1   0.75689589377041  2.38744135811901  0.10132784767542
1   -1.74036036252041  1.82141835221649  -0.04975315265424
1   -2.48381436121875  -0.61178074483923  -0.16545201051198
1   -0.59908454397977  -2.57221700202310  0.22664435050516
1   2.02347147110043  -1.66396890942823  0.15648487137565
1   2.42566163845839  0.71708678912378  0.10727951291857





