%nproc=4
%Mem=2Gb
# TD=(NStates=1) B3LYP/6-31G(d,p)  

EMISPCT

0 1
6   0.32485874397484  1.33738186585262  -0.07140510982889
6   1.40406750652911  0.37058666673858  -0.01139188065984
6   1.04636410231581  -1.01738525635867  0.00395664352207
6   -0.34093509451214  -1.35276046737220  0.00227218130875
6   -1.35295511024442  -0.38915007009962  -0.09707328106633
6   -1.07182372567605  1.04657877295285  0.13169225014410
1   0.62936298315058  2.44363622402983  -0.08475454669179
1   -1.76739008723506  1.95700194802831  0.23463719470206
1   -2.33706405915177  -0.72934681872518  -0.18480334441171
1   -0.66710099392371  -2.56337854838260  0.27249488350643
1   1.71760064556326  -1.84877271640431  0.23996522944814
1   2.29453249378960  0.78600105121460  0.09575560337529





