%nproc=4
%Mem=2Gb
# TD=(NStates=1) B3LYP/6-31G(d,p)  

EMISPCT

0 1
6   0.38254785301260  1.38030847215447  0.08860337937665
6   1.37585941193574  0.40299171548967  -0.05157092672351
6   0.93180836988997  -0.98063133005320  -0.01349021391185
6   -0.30693145764295  -1.40018959428692  0.01932227414290
6   -1.35024248590008  -0.40980581808468  -0.05246696193341
6   -1.00839022073526  1.01001969127185  -0.01622508826499
1   0.58484379919842  2.45002478520311  0.01299851097318
1   -1.86639557488776  1.80996129240518  -0.15089803159143
1   -2.37573758495332  -0.74987887574554  0.27654984425152
1   -0.71948377184838  -2.50399770334058  0.12277388777618
1   1.67236606198881  -1.81107749808672  0.16280074889117
1   2.40948679270754  0.75811931888133  -0.07125928367311





