%nproc=4
%Mem=2Gb
# TD=(NStates=1) B3LYP/6-31G(d,p)  

EMISPCT

0 1
6   0.34272143229543  1.31810873695456  -0.03732501378045
6   1.39193988464484  0.37018720128452  -0.00976995728929
6   1.04180805027154  -0.98242765084902  0.02108780535064
6   -0.28514543746606  -1.40880763380613  -0.05464395436145
6   -1.40892684588944  -0.32940607204570  0.00969744532250
6   -1.05848649186786  1.03135771735840  0.07878590654045
1   0.51654579313901  2.43017071029178  -0.20442509597681
1   -1.92373607953534  1.76862022803595  -0.12191189690932
1   -2.41560455297253  -0.71823916575611  0.05601151891206
1   -0.72114565023638  -2.26353115342760  -0.29860441869723
1   1.80075791744098  -1.79107119194620  0.48318279466770
1   2.50749154521713  0.56982174184537  -0.02130406968916





