%nproc=4
%Mem=2Gb
# TD=(NStates=1) B3LYP/6-31G(d,p)  

EMISPCT

0 1
6   0.33992634485190  1.37822753816757  -0.05126457006390
6   1.38935911996202  0.41804508261657  -0.01019465291410
6   0.97942502356959  -0.97304775028728  0.11157472967149
6   -0.33578090645278  -1.42762454578683  -0.17139911254640
6   -1.35513964827111  -0.37127231082839  0.05519006814786
6   -1.00027595226911  0.98382562783302  0.02207809587066
1   0.61132771726402  2.26806812844404  -0.08951995515733
1   -1.77275526899021  1.84801817535896  0.33003679045014
1   -2.48133284651663  -0.65365954916040  0.25216520364774
1   -0.70804527914054  -2.44531782057308  -0.30127292694110
1   1.80058067589403  -1.65588530267556  0.72749215686431
1   2.35438646437251  0.53702673763459  -0.31736756379357





