%nproc=4
%Mem=2Gb
# TD=(NStates=1) B3LYP/6-31G(d,p)  

EMISPCT

0 1
6   0.37686060172758  1.47668745436388  -0.01278266993222
6   1.33328996358382  0.39644803399633  -0.00213541862403
6   1.01358085561247  -1.10418854151914  -0.03964128221800
6   -0.32264378100622  -1.38874986714504  0.02112987981979
6   -1.34617097664934  -0.38698152089600  0.02177812685968
6   -1.03176738759144  0.99736542511897  0.01128494676037
1   0.62552700262880  2.43152754854304  0.18115385918198
1   -1.95693932544224  1.59308266712136  -0.23557576787587
1   -2.50032905864464  -0.53163657811478  -0.16675541882253
1   -0.73422702593047  -2.39623457028840  0.10926031838888
1   1.88042737970787  -1.81678218423236  -0.02415027346236
1   2.41326935153889  0.79609575126691  0.14106431949359





