%nproc=4
%Mem=2Gb
# TD=(NStates=1) B3LYP/6-31G(d,p)  

EMISPCT

0 1
6   0.33327198058325  1.36300645719041  -0.00260545005301
6   1.37425410084046  0.37833684929645  -0.02365797751157
6   1.10455269345442  -1.07493155549967  -0.06153362616263
6   -0.33044082948563  -1.35114886066764  0.14027833325795
6   -1.41096651893619  -0.35852093111584  -0.12112084392320
6   -1.04113258134601  1.01416333329379  0.07048590938603
1   0.45911207945560  2.46387421465286  -0.03434863951969
1   -1.80000711001321  1.86276944059175  0.16216472425163
1   -2.46036850899160  -0.59948038876417  -0.24679836837938
1   -0.57619935914663  -2.33983788064127  -0.06385800114496
1   1.75545307230279  -1.97786198355600  0.13654603901759
1   2.30782397555693  0.88487256185068  0.02105019752946





