%nproc=4
%Mem=2Gb
# TD=(NStates=1) B3LYP/6-31G(d,p)  

EMISPCT

0 1
6   0.38537963678593  1.44000520805124  0.00830621034955
6   1.37863810064306  0.37002865458783  0.03061160341691
6   1.01008319027986  -0.97235607639651  -0.05022069190956
6   -0.32688488969908  -1.42135835922571  -0.00088528935005
6   -1.36242742461915  -0.38949480794618  -0.01690744690522
6   -1.10257883952281  1.02250943602208  0.06524932617705
1   0.59898415742562  2.35130833382287  -0.24259429207397
1   -1.87970918299374  1.77039562895438  -0.18751605313086
1   -2.30967967931855  -0.72914036552162  -0.19983838211428
1   -0.62104740055937  -2.43000802992018  0.06618862221773
1   1.71111502858095  -1.86740573352037  0.32785528365467
1   2.68748180459613  0.36971457377030  -0.25820657286187





