%nproc=4
%Mem=2Gb
# TD=(NStates=1) B3LYP/6-31G(d,p)  

EMISPCT

0 1
6   0.31635854647918  1.36404679286475  -0.04667343230571
6   1.41896814163750  0.36831876888754  0.05858486638410
6   1.06421268618872  -0.98321930201404  -0.06088647896385
6   -0.41723679641974  -1.39059040363747  0.00715291967992
6   -1.32726473180078  -0.36851710674420  -0.01850443727504
6   -1.05516584445192  0.99960953164932  -0.05058343541040
1   0.61281503195157  2.42172035271980  0.04318965223436
1   -1.86123301049066  1.78356025477213  0.45933090534995
1   -2.43220454690483  -0.58057307980795  0.28710096246192
1   -0.56432246163405  -2.43842243060445  0.43933932325735
1   1.79361139681892  -1.83620829931226  -0.24233958877296
1   2.44595747167972  0.75234655882701  0.52913804997964





