%nproc=4
%Mem=2Gb
# TD=(NStates=1) B3LYP/6-31G(d,p)  

EMISPCT

0 1
6   0.33104439877781  1.38907860487915  0.00076790577662
6   1.41262285716637  0.38716013403501  0.02281500359949
6   1.03156727865762  -0.98617573593237  -0.03856999723828
6   -0.38087069568221  -1.39761084025882  0.03246164921783
6   -1.39340661650270  -0.32889663065189  -0.01545322652411
6   -1.00191969439192  0.96528093988822  -0.02760754319490
1   0.59838187976379  2.51022314734408  0.11144880723925
1   -1.77824954414709  1.48380533585780  0.24628229110972
1   -2.36198596430514  -0.79494587127117  -0.04524514764323
1   -0.63356119012829  -2.39426794948351  0.02368260458559
1   1.79652817661674  -1.76727702402100  0.19037658457066
1   2.42205164154681  0.62753619186410  -0.17687762556292





