%nproc=4
%Mem=2Gb
# TD=(NStates=1) B3LYP/6-31G(d,p)  

EMISPCT

0 1
6   0.34910880457012  1.36424997987503  -0.02537681078272
6   1.32862814336687  0.37387405293277  0.00108654338737
6   1.00101370759414  -0.99560746069120  0.00951193675436
6   -0.31698481663857  -1.37892949462295  -0.02625895098322
6   -1.35563045047531  -0.35537671595635  -0.01851218444616
6   -1.00066913682751  0.99871931406772  0.03975570135715
1   0.64739670655835  2.47474344913411  -0.13213150379003
1   -1.91752684787171  1.68107587579941  0.02452165610159
1   -2.29577444573049  -0.67557186715635  0.13213204422071
1   -0.52124718531420  -2.38633959701952  0.01927492033693
1   1.70352941648418  -1.79541434128928  0.07627822650154
1   2.33672715301420  0.61970733322107  0.15042877437652





