%nproc=4
%Mem=2Gb
# TD=(NStates=1) B3LYP/6-31G(d,p)  

EMISPCT

0 1
6   0.38900826534460  1.36948360285965  -0.01667244146989
6   1.35060494621335  0.38879669138823  0.07597175411157
6   0.96409021834964  -0.91841748219579  -0.03518858516892
6   -0.37424116958905  -1.33512113605494  -0.01434249070727
6   -1.37778445643962  -0.39154548320677  0.03056343237580
6   -0.95145353550763  0.92454720481038  -0.01231801003545
1   0.69945588723996  2.43735049829834  -0.05828477189275
1   -1.87702000927881  1.64965091379831  -0.20621934148758
1   -2.40455249080294  -0.85674109821126  0.19741168065932
1   -0.40298877844366  -2.49876304642142  -0.14719132224901
1   1.57803978052210  -1.73736436593382  0.00455554421605
1   2.39722535700928  0.58361340689567  -0.17313579702575





