%nproc=4
%Mem=2Gb
# TD=(NStates=1) B3LYP/6-31G(d,p)  

EMISPCT

0 1
6   0.33528639946922  1.35925359289271  -0.04395457488764
6   1.33303294379742  0.38549172542994  -0.00714541576918
6   1.03236888751113  -1.00333198407230  0.00619113540434
6   -0.34976820031141  -1.40189668954176  0.00180810417106
6   -1.32687994245448  -0.33141659585143  -0.02111184787691
6   -1.01669399755265  1.00110051312898  0.05114977766251
1   0.61642769689760  2.41422210379212  0.07438549294017
1   -1.77719955876951  1.65496825354529  0.01390222491344
1   -2.46779416840784  -0.67363914832032  -0.15460602182330
1   -0.58087935185367  -2.40518415699493  0.16947554912806
1   1.80906703625321  -1.66558859783324  -0.07353996898092
1   2.33822126043147  0.56623781635538  0.14889728153213





