%nproc=4
%Mem=2Gb
# TD=(NStates=1) B3LYP/6-31G(d,p)  

EMISPCT

0 1
6   0.31465232998612  1.38940431429971  0.00710151375774
6   1.41974173749841  0.37631511032172  -0.00308906770214
6   0.99071782228322  -0.97631421027378  -0.05222674124497
6   -0.36509156357223  -1.42074115639256  0.03487843355742
6   -1.38138984222675  -0.37403931315228  0.05515222948099
6   -1.00996595927096  1.00981490054484  -0.07438531044241
1   0.73856130630504  2.52916711399764  0.12792858318999
1   -1.75473554012469  1.77367328355863  0.24715804104044
1   -2.30613820430592  -0.85588418427338  -0.17647726307738
1   -0.62101527406889  -2.48048588874548  -0.08222392357847
1   1.77682203338816  -1.73529682660256  0.15329384708592
1   2.52642096152279  0.74207171326700  0.17541893078229





