%nproc=4
%Mem=2Gb
# TD=(NStates=1) B3LYP/6-31G(d,p)  

EMISPCT

0 1
6   0.34324525464054  1.41306139810987  -0.00495450965305
6   1.36729212000765  0.38014362864065  -0.07331301019108
6   1.01876473737960  -0.99717516082626  0.07731001260878
6   -0.35878156100854  -1.41214532873357  0.02099450101423
6   -1.37097737110642  -0.38058515226487  -0.09135423952399
6   -0.99152033893142  0.97383547313259  0.06198160877877
1   0.74584878792862  2.45197311570615  -0.02254612630859
1   -1.81333738095068  1.80631097194763  0.27386589771281
1   -2.39364474302586  -0.75044164795309  -0.01625972787680
1   -0.78969795729568  -2.37599291112836  -0.13801490226718
1   1.80351202960030  -1.66276792967933  0.11194766475640
1   2.35706549909752  0.77681053885511  -0.08141643414327





