%nproc=4
%Mem=2Gb
# TD=(NStates=1) B3LYP/6-31G(d,p)  

EMISPCT

0 1
6   0.25683022453502  1.37238359295540  0.02270666033820
6   1.45407858725290  0.33957801530983  -0.06879117304065
6   1.07454232583154  -1.00217651338852  0.06132298909523
6   -0.34070730201138  -1.34812381952152  0.01530754865053
6   -1.40670749817384  -0.36909064032423  -0.04345135199762
6   -1.06041218030259  0.99286388837451  0.00189608426531
1   0.71282957266015  2.26892423529883  0.13968693895604
1   -1.66729199545578  1.87770303364812  0.15910061708418
1   -2.45872211545406  -0.50418421783406  -0.03442925433296
1   -0.64378675080575  -2.44835689952352  -0.00792837141908
1   1.81053874331059  -1.64243199830467  -0.03962170671038
1   2.47494148074857  0.62639805605706  -0.06635924016154





