%nproc=4
%Mem=2Gb
# TD=(NStates=1) B3LYP/6-31G(d,p)  

EMISPCT

0 1
6   0.38240824583945  1.30669196007768  -0.07344880138342
6   1.39693293399651  0.40757659876791  0.06231888978070
6   1.00364773152099  -0.93618434808083  -0.01195394817170
6   -0.32732794606991  -1.39125627328071  -0.02433590433644
6   -1.41054647224294  -0.38526568537191  0.03696522566321
6   -1.05103671012381  0.99323905849450  0.01287390009742
1   0.76460104353730  2.27612330340780  -0.11566252219718
1   -1.84172533491990  1.87596710765040  0.05961483152932
1   -2.37578628038479  -0.72922158232825  0.05019093759982
1   -0.59248596887325  -2.26258774683394  -0.13656574562979
1   1.68701461009915  -1.79118787371280  -0.07479697948812
1   2.44068355937363  0.70675751148798  0.18414420230582





