%nproc=4
%Mem=2Gb
# TD=(NStates=1) B3LYP/6-31G(d,p)  

EMISPCT

0 1
6   0.36119239205819  1.38232243357631  0.01235387937790
6   1.38886604684134  0.39377679718103  0.05016441060209
6   1.02793931419983  -0.96287870398439  -0.08698794470455
6   -0.34679591706680  -1.40590948995889  0.08167452060130
6   -1.43615417525998  -0.41061206819972  -0.00508667307481
6   -0.97257731208383  1.00354753888867  -0.04301153315447
1   0.68959103333938  2.34353329551944  -0.06790382757178
1   -1.86804975838846  1.65465043426088  0.08715713379169
1   -2.47994140339977  -0.71853888355209  -0.15742533114335
1   -0.79515223296508  -2.37821170585626  0.15919107719459
1   1.72188736372519  -1.67498233742194  -0.30645302833758
1   2.49201192222732  0.75685195492418  0.16096562755110





