%nproc=4
%Mem=2Gb
# TD=(NStates=1) B3LYP/6-31G(d,p)  

EMISPCT

0 1
6   0.39654884098026  1.39299936483480  0.03926508117109
6   1.34332887963655  0.38958604430619  0.03315573227032
6   1.01664256530462  -0.95267094582854  -0.07763418250499
6   -0.40503925951924  -1.42605764467754  0.00208407029322
6   -1.35010495860906  -0.39728655643170  0.07993127284791
6   -0.99741290942551  1.00349500324952  -0.05596376906643
1   0.52388201631761  2.52067930132033  -0.02811224246566
1   -1.71785554640263  1.84967529872634  -0.27661192147555
1   -2.35442568523501  -0.76940261293013  -0.03166927287852
1   -0.55121256971333  -2.67994677773054  -0.10928221208036
1   1.72425730132939  -1.84912508443532  0.20863730508727
1   2.33592558023299  0.81921233924154  -0.04776112467228





