%nproc=4
%Mem=2Gb
# TD=(NStates=1) B3LYP/6-31G(d,p)  

EMISPCT

0 1
6   0.33163123619790  1.39093055885949  0.00249161157618
6   1.41174735308444  0.36360196211081  -0.02356039511782
6   1.01328381740633  -0.93812256262898  0.03314906974289
6   -0.33258955867231  -1.45396914344703  0.00557446311757
6   -1.41908896819651  -0.36102772537762  -0.06725604429925
6   -1.00892203655951  1.04539118955502  0.00782141528551
1   0.63378377004682  2.47979479160887  0.32276310052897
1   -1.93338835465630  1.72105539569370  0.19206217970988
1   -2.41664962872762  -0.76915203831809  0.09014824519597
1   -0.64548414110435  -2.67474369631974  0.16101781417955
1   1.83967093303573  -1.87556360808874  0.14387745323213
1   2.58721845597174  0.60721635060851  -0.33888777034924





