%nproc=4
%Mem=2Gb
# TD=(NStates=1) B3LYP/6-31G(d,p)  

EMISPCT

0 1
6   0.33949159565964  1.37165010356453  -0.00425696554868
6   1.32974419272861  0.42049328807559  0.03339954425458
6   0.99704457077237  -1.04170043896255  0.05034100647270
6   -0.31798805327016  -1.35756183513157  -0.05876431464721
6   -1.37621354425331  -0.41883403848766  0.01460886992968
6   -0.97998978861368  1.03279456303319  -0.01709558660157
1   0.89501807722987  2.41455759595704  -0.13354767284705
1   -1.64388330466343  1.80209270220101  0.10093324402617
1   -2.36834498293365  -0.93552186297314  0.19709016439824
1   -0.77832038522018  -2.48590181511164  -0.11253793000049
1   1.68807114593377  -1.69361206094479  -0.03823945297835
1   2.29769029625119  0.83660814101414  -0.26288725534492





