%nproc=4
%Mem=2Gb
# TD=(NStates=1) B3LYP/6-31G(d,p)  

EMISPCT

0 1
6   0.38843967727776  1.40056142809793  0.01100672571533
6   1.37676151080259  0.39083114885134  -0.01727690463565
6   1.01504789996955  -1.02669709548006  -0.06616066649176
6   -0.33160906773937  -1.40739227274660  0.06492180318407
6   -1.39137934247278  -0.35590051959756  0.04100787386150
6   -1.03862651849133  1.01036321356416  -0.04244885829133
1   0.48513634111246  2.48401946586276  0.12348871345174
1   -1.89708904742332  1.68320480338233  -0.09617524901506
1   -2.52576393894295  -0.65728327315535  -0.16837873199884
1   -0.46186774875298  -2.49429686678965  -0.04743573319771
1   1.85652569524227  -1.66080406153336  -0.08430416873826
1   2.33253606779758  0.50326097561905  0.39511153382186





