%nproc=4
%Mem=2Gb
# TD=(NStates=1) B3LYP/6-31G(d,p)  

EMISPCT

0 1
6   0.29864402613600  1.42984059169502  0.10926079037349
6   1.39931367826270  0.40757719947825  -0.02590247167916
6   1.02016084829479  -0.98094636546612  -0.07208084103857
6   -0.39256227034624  -1.40341265169130  0.06232637850364
6   -1.37847477854035  -0.45832611208902  -0.05550094826345
6   -0.93436861078267  0.97566073077479  -0.01830805679785
1   0.53812828723480  2.49972009907063  -0.04178022469443
1   -1.69828776949190  1.85277699154694  -0.31061787488912
1   -2.54763513717808  -0.39740589665300  0.10866080041810
1   -0.64033628712334  -2.47668537013203  0.29336258703801
1   1.67898045504515  -1.76258479036485  0.00734887794275
1   2.51234951255377  0.59360128233327  -0.05418113082248





