%nproc=4
%Mem=2Gb
# TD=(NStates=1) B3LYP/6-31G(d,p)  

EMISPCT

0 1
6   0.33303901784044  1.39786444749348  -0.03627708237436
6   1.38525510381156  0.37661227557504  -0.03597636206612
6   0.94639563938191  -0.98097789220623  0.11691013476872
6   -0.27864523241147  -1.41301370045391  -0.14741114920215
6   -1.38027337427440  -0.37868338860396  0.05997395584721
6   -1.00670684125715  1.01922032291579  -0.00106221276659
1   0.53234556116391  2.39351227940952  -0.07478647377680
1   -1.72555992462311  1.83897849499926  0.17062235644078
1   -2.27591132608101  -0.85364964809211  0.28734521292394
1   -0.85467650148840  -2.42278024669457  -0.08941815231465
1   1.87238795975610  -1.73034082155409  0.13248685442574
1   2.45982737824588  0.54643709666782  0.17292331814285





