%nproc=4
%Mem=2Gb
# TD=(NStates=1) B3LYP/6-31G(d,p)  

EMISPCT

0 1
6   0.33959497891718  1.39167627913363  -0.00563092185095
6   1.40984577810444  0.37214515176354  -0.01548015966888
6   0.97964777120990  -0.99328231649271  0.01446352758122
6   -0.35463109632674  -1.37925501730990  0.01879584516376
6   -1.33408967312333  -0.40336429523100  -0.06881508848665
6   -1.05705858502070  0.99237050819083  0.08050938870801
1   0.76022582956864  2.46638444504557  -0.38978191944577
1   -1.73711889023519  1.79567864424482  0.03186832861633
1   -2.40687518684746  -0.68010545725421  -0.06917220297225
1   -0.59235417135622  -2.39579515777200  0.05546925437731
1   1.67138939755488  -1.73694816687423  -0.14235519804604
1   2.45766012444880  0.77954523226941  0.18811232103490





