%nproc=4
%Mem=2Gb
# TD=(NStates=1) B3LYP/6-31G(d,p)  

EMISPCT

0 1
6   0.34710725342126  1.38905726197927  0.11722561356133
6   1.30073288330023  0.38361185040189  -0.11053228572782
6   1.04951835134596  -1.01300432291633  0.05922550623233
6   -0.32304363201458  -1.39762582358701  0.00918033570123
6   -1.33759658968703  -0.40264741167580  -0.06456854894460
6   -0.98263610097154  1.02987707209143  0.00022343415978
1   0.47133392979074  2.42425549953757  -0.16126266605559
1   -1.79811593658865  1.82236927327701  0.17581917057066
1   -2.50728756510171  -0.63273180713322  -0.21317472882259
1   -0.76550237963481  -2.38907614655327  0.18633949526605
1   1.59938541398583  -1.89957113184412  0.13603015862998
1   2.39733253116835  0.74832914447682  -0.27073418101277





