%nproc=4
%Mem=2Gb
# TD=(NStates=1) B3LYP/6-31G(d,p)  

EMISPCT

0 1
6   0.39240263660195  1.44120081532372  0.05941928999873
6   1.33874973053200  0.39871804021498  0.02762651073506
6   1.02441817132309  -1.02867576312387  -0.07978833144656
6   -0.36349536592068  -1.43736241562375  -0.01781430815087
6   -1.34444108837006  -0.41707261873852  0.10993950068261
6   -1.02985254287837  1.03878892377898  -0.12826325710027
1   0.63561865455530  2.51667526097639  0.15324532838258
1   -1.82377844077269  1.72424927578980  -0.22940696182874
1   -2.36214602783553  -0.81807109326196  0.22767557177533
1   -0.84352878781056  -2.34180165169671  0.01292692129563
1   1.79464827517253  -1.79511703049276  0.10852844376332
1   2.39728248839729  0.74581236271049  0.12172149878959





