%nproc=4
%Mem=2Gb
# TD=(NStates=1) B3LYP/6-31G(d,p)  

EMISPCT

0 1
6   0.30645403129044  1.38893556717967  0.10444202962905
6   1.39030492226907  0.34917651340836  -0.07012939322702
6   0.99195495409193  -0.97336934604991  0.00964279961990
6   -0.34938779215722  -1.38793259326713  0.04682103722870
6   -1.33643340507057  -0.36812718229546  -0.06274287825979
6   -1.02583731889508  0.99530621817345  -0.04381302116743
1   0.73555414795978  2.52412218904724  0.33928739166944
1   -1.86436939034868  1.58187762055181  -0.09648606981442
1   -2.38407616217017  -0.56252691064935  0.15096144099374
1   -0.69848092157215  -2.38927761448648  0.08898376475252
1   2.00150533186618  -1.83221546471579  0.16139682844083
1   2.46346371660737  0.64559646941843  -0.42850186496201





