%nproc=4
%Mem=2Gb
# TD=(NStates=1) B3LYP/6-31G(d,p)  

EMISPCT

0 1
6   0.34290972432274  1.42466087712214  0.02216663681350
6   1.33858169087123  0.35843015603859  -0.01282403898138
6   0.98782490430228  -0.99329269027403  0.01353162085989
6   -0.32681680715775  -1.37047909928360  -0.00532641640426
6   -1.37052693900683  -0.39629730572122  0.03183959463543
6   -1.00442204536640  0.99508118816142  -0.03505397452164
1   0.72360244999021  2.44951696689502  0.27500396731193
1   -1.74543335966739  1.74009223809675  -0.31458399305854
1   -2.33716786023936  -0.67983671146460  0.17429994743027
1   -0.53556957954427  -2.52980462208584  -0.16579060607213
1   1.80039084088684  -1.75995929726499  -0.01011791390366
1   2.44532456725148  0.61039934737063  -0.15471217452905





