%nproc=4
%Mem=2Gb
# TD=(NStates=1) B3LYP/6-31G(d,p)  

EMISPCT

0 1
6   0.31996674941607  1.39718730538082  0.00461737059358
6   1.40447153094782  0.35629138751214  0.02286011554406
6   1.06180482327682  -1.01472716236444  -0.04377857508885
6   -0.35928571946687  -1.35437970649197  -0.00922482874138
6   -1.37345608569028  -0.36268825053125  0.00396594873485
6   -1.10075106034195  0.99192930622132  -0.00709870614413
1   0.62980618204886  2.34181033922103  -0.14822693398260
1   -1.72783283558275  1.96213643020127  0.13363736135682
1   -2.20213743221764  -0.77390685527483  -0.05536586753167
1   -0.70805546324652  -2.41489891886911  0.26609619915065
1   1.91554709450491  -1.83841074191796  0.04929278473224
1   2.62147804082565  0.60357914010383  0.14622434933351





