%nproc=4
%Mem=2Gb
# TD=(NStates=1) B3LYP/6-31G(d,p)  

EMISPCT

0 1
6   0.38046565624018  1.39208162397585  -0.00131446896534
6   1.40823069889124  0.42631656947630  0.01264656958847
6   0.98347026026471  -0.99690050787161  0.00289449599899
6   -0.35778292103559  -1.42485073335459  -0.01475914397744
6   -1.35906080797975  -0.39927528344818  -0.02205582493114
6   -1.05268120713746  0.99384458747748  0.05193337704910
1   0.74411741595925  2.48753778999265  -0.13844480768039
1   -1.83805285703205  1.75078131322669  0.00377899479522
1   -2.55369857658715  -0.60135838276307  -0.14807339034078
1   -0.57864370099467  -2.45152919678741  -0.06565388885302
1   1.71832276644448  -1.84735350318732  0.33593211891206
1   2.47219444945478  0.75691232998970  -0.38859809192262





