%nproc=4
%Mem=2Gb
# TD=(NStates=1) B3LYP/6-31G(d,p)  

EMISPCT

0 1
6   0.34696622051112  1.33562828724535  -0.02747783009540
6   1.37841150930661  0.41040226775889  -0.01259847943899
6   1.05123638040538  -0.99933937869660  0.00948752049696
6   -0.33614793004900  -1.36184413637653  0.01059364777773
6   -1.43507879274709  -0.36832557652177  0.07565530391079
6   -0.98714769627678  0.99157763258156  -0.05009218066156
1   0.39163973936271  2.24131044265525  0.16706649888028
1   -1.70111154483405  1.86824926199944  0.13893671865554
1   -2.42142481800421  -0.82044424791801  -0.14772332584949
1   -0.79679516025834  -2.34779112993855  -0.43831797867571
1   1.87675850543547  -1.70328902151473  0.13252294922585
1   2.48184258339553  0.66071273199562  0.07140871723986





