%nproc=4
%Mem=2Gb
# TD=(NStates=1) B3LYP/6-31G(d,p)  

EMISPCT

0 1
6   0.37327479580236  1.38518715546749  -0.06283326893974
6   1.38697914878720  0.41085757722096  0.01245750205830
6   1.03110610628199  -0.97640668594509  -0.01551133068301
6   -0.35215720140240  -1.39570285932033  0.02776631108944
6   -1.42406215841993  -0.36248715023268  -0.01969441926321
6   -1.02645617248026  0.95417821436156  0.06669986378006
1   0.60616263534028  2.35283594761382  -0.02746521881842
1   -1.60869537035051  1.82810109115888  -0.15094803982279
1   -2.41658406859618  -0.73460921244902  -0.09964496343116
1   -0.63545124178342  -2.49532630296744  0.05728843120634
1   1.76263641695082  -1.75964565684854  -0.26862037806575
1   2.44304877321795  0.65020396889072  0.36795584235993





