%nproc=4
%Mem=2Gb
# TD=(NStates=1) B3LYP/6-31G(d,p)  

EMISPCT

0 1
6   0.32059734182857  1.37971638755896  -0.08922152163908
6   1.33697879904827  0.31285856717984  0.00748540622482
6   1.08793160763931  -1.03229639772271  -0.01238066739422
6   -0.32195162820787  -1.30694800157974  0.02867824884555
6   -1.39092155650036  -0.37509872336352  -0.01990777022977
6   -1.00941812512643  1.00230262739419  0.12125177483409
1   0.46734873058021  2.53698989573835  -0.02180164847387
1   -1.87102984500554  1.73781251305639  -0.26172391495563
1   -2.45956528387684  -0.56184368073125  -0.23216108109427
1   -0.61608914853603  -2.41059308635084  -0.21936143295602
1   1.84843819213939  -1.74725547092579  0.08014551780678
1   2.35435404026238  0.63908581796963  0.16418379424066





