%nproc=4
%Mem=2Gb
# TD=(NStates=1) B3LYP/6-31G(d,p)  

EMISPCT

0 1
6   0.32060852572236  1.37764433001124  0.09618633459368
6   1.28812179378969  0.40815513939375  -0.08983971332079
6   1.00855645283440  -0.99888240329219  0.04058056835832
6   -0.32642870483179  -1.39584614280507  -0.00286799327000
6   -1.36963583039521  -0.35581963079273  -0.01987828740524
6   -0.95439425817766  0.99234580047568  -0.00185163119870
1   0.72640001943329  2.50124972486744  -0.15017818721027
1   -1.66969824666811  1.67313912802706  0.02980406496805
1   -2.30306330610748  -0.61602253924837  -0.25543916579522
1   -0.45607433897515  -2.49183215005367  0.11193682085634
1   1.79724831248890  -1.84204990451957  0.14064521839406
1   2.32760662099784  0.50206902673865  -0.18194621389569





