%nproc=4
%Mem=2Gb
# TD=(NStates=1) B3LYP/6-31G(d,p)  

EMISPCT

0 1
6   0.35070980252928  1.37337690399551  0.02048054894099
6   1.37982801539138  0.39953586295723  0.01194578545142
6   1.07471205816251  -1.02615902754638  -0.02515392278026
6   -0.40857449849637  -1.33963872050256  0.00457259654355
6   -1.37111560292437  -0.35138613104801  -0.01725524827363
6   -1.02937122363522  0.96577510403348  -0.00286856169163
1   0.43830669402685  2.38117061720059  -0.02345526949467
1   -1.66772909077648  1.60512954511871  -0.03600451271733
1   -2.38509821454766  -0.71030177146259  0.11582496335498
1   -0.61517954505575  -2.37468926414935  0.03019635114755
1   1.89127995774801  -1.97472369786494  0.15139377622798
1   2.41172478928527  0.82177401177550  -0.12482235045447





