%nproc=4
%Mem=2Gb
# TD=(NStates=1) B3LYP/6-31G(d,p)  

EMISPCT

0 1
6   0.34998336240421  1.34167590221380  -0.00270496493996
6   1.38884278716674  0.42817955527061  0.02375730758488
6   0.98763350351262  -0.99711969406613  0.01559933699040
6   -0.35184750870585  -1.36659875698537  -0.13038008473484
6   -1.36385126453825  -0.38568670410226  0.06413176170181
6   -1.03141661701720  0.99867424534867  -0.03330993772443
1   0.78944812854777  2.29556893809883  -0.18930602756987
1   -1.69228706715947  1.80873376706985  0.04684056535963
1   -2.39092744042183  -0.79303402394708  0.51746459653010
1   -0.67093368195839  -2.49805094107411  -0.00969329148518
1   1.83016915092294  -1.79102422093020  0.36671558062405
1   2.37283369322300  0.78680398075378  0.12769118521047





