%nproc=4
%Mem=2Gb
# TD=(NStates=1) B3LYP/6-31G(d,p)  

EMISPCT

0 1
6   0.38194144437331  1.40645565071316  -0.00239256797016
6   1.32949056277042  0.42262051537882  -0.03931869488094
6   0.95491239794541  -0.97882239251914  0.07176543373343
6   -0.39586037444258  -1.40540547508594  -0.00317582352221
6   -1.33920018402007  -0.42438447945655  -0.01740618667583
6   -0.94563309946662  0.97525832879347  0.03855685867656
1   0.66366352769372  2.49086433486091  -0.12636958370917
1   -1.66833402141007  1.79967288634110  0.00903610159118
1   -2.36129169924047  -0.83900065210849  -0.10003029400341
1   -0.67775302939366  -2.50832271736437  -0.27361766084693
1   1.86132946055004  -1.59473911211814  -0.05546147130680
1   2.34259987138843  0.71570369701145  -0.10996435632316





