%nproc=4
%Mem=2Gb
# TD=(NStates=1) B3LYP/6-31G(d,p)  

EMISPCT

0 1
6   0.38948319995398  1.44253575081630  -0.02023363194188
6   1.36423273338391  0.41493262084223  -0.01391952238598
6   1.01000822521772  -1.04188086499351  -0.01029688132064
6   -0.35794638036458  -1.42380437060364  0.10732448581170
6   -1.34099254263546  -0.38594634643799  -0.10742415671677
6   -1.04090956220553  0.99049168737047  0.05833759325827
1   0.39889281014739  2.50599254465211  0.11261157133259
1   -1.66217790778194  1.88706083552064  0.09973374899622
1   -2.42114380029138  -0.71505371568788  -0.18842797382853
1   -0.78746655150583  -2.55428196879581  0.04184605270037
1   1.80697638476970  -1.87216784577525  -0.21607313328402
1   2.39368998082662  0.76470538168760  -0.03813538421421





