%nproc=4
%Mem=2Gb
# TD=(NStates=1) B3LYP/6-31G(d,p)  

EMISPCT

0 1
6   0.35257665307049  1.40797189022457  -0.02650886001340
6   1.31962169244842  0.39549310602191  0.07873273540487
6   1.02164965050569  -1.05793524982910  0.00844078026131
6   -0.33623282013230  -1.37654196486971  -0.08914823851536
6   -1.33569168251154  -0.40761309025109  0.09478321498939
6   -1.03501884381439  1.00714141214879  -0.06041591582515
1   0.83210564148688  2.45949271577594  -0.02276638960068
1   -1.93420284099578  1.82144871103406  -0.19086728487485
1   -2.38033987153971  -0.39664498047209  0.35168505254448
1   -0.62659930359768  -2.52648721204074  -0.01213903470027
1   1.85152672396357  -1.74054395036733  -0.26300078375223
1   2.39445873850771  0.74712105082806  0.05666698426076





