%nproc=4
%Mem=2Gb
# TD=(NStates=1) B3LYP/6-31G(d,p)  

EMISPCT

0 1
6   0.34500480429528  1.35310010614154  -0.03203098815572
6   1.38259806210340  0.37653902759507  0.02855844459395
6   1.04010846090505  -1.04640691768381  -0.03980964302040
6   -0.26797398705539  -1.39834421294981  -0.01185895801585
6   -1.40543613283556  -0.33823744955367  0.05069155118928
6   -1.06809435626125  1.05499429630956  -0.01727560750366
1   0.64250602620771  2.38584201166275  0.06466977997332
1   -1.93898402686900  1.68458682434936  -0.15218635888720
1   -2.37318343316424  -0.63228100576614  0.19526511441749
1   -0.79859138488030  -2.48256385950092  -0.16485959828497
1   1.81177820721045  -1.70760325150488  0.11085362029503
1   2.37879436362348  0.71904663622480  0.24315785495575





