%nproc=4
%Mem=2Gb
# TD=(NStates=1) B3LYP/6-31G(d,p)  

EMISPCT

0 1
6   0.34457412303124  1.35880549169019  0.02179535206829
6   1.36946655489999  0.39849115101395  0.02088666041393
6   1.07102308471947  -0.99600526297671  -0.03655599792261
6   -0.38485349447603  -1.41609586868908  0.06861360145135
6   -1.39266897865439  -0.35040871105255  -0.05143152913198
6   -0.98209331767994  1.01172259538017  -0.01706998533434
1   0.37527812309948  2.40513515706307  0.09621876861452
1   -1.78195521507979  1.75335736079894  -0.05205880024111
1   -2.38547634945579  -0.71920174542231  -0.02196233363268
1   -0.71472337832378  -2.50644818486607  0.33109826550098
1   1.85587198943145  -1.85279947113681  -0.48330016810110
1   2.41218271069720  0.82363734310179  0.04473954674933





