%nproc=4
%Mem=2Gb
# TD=(NStates=1) B3LYP/6-31G(d,p)  

EMISPCT

0 1
6   0.34062754724087  1.31464874087611  -0.04341119535170
6   1.40558253027447  0.36572801158617  -0.00129473478376
6   1.01553921741272  -0.96469044164113  0.03819549743357
6   -0.30929847454667  -1.39412796052727  -0.02868139874330
6   -1.41300730608297  -0.35418494301185  -0.03689074604394
6   -1.02038979383618  1.02470800017946  0.07977736508820
1   0.39705895310910  2.29149963275088  -0.13160367250502
1   -1.72404258440131  1.85887856002761  0.01250962840502
1   -2.55451601701461  -0.72432317503842  -0.02801789150630
1   -0.78013839453828  -2.39747909532591  0.01929516450765
1   2.05547779807856  -1.64564285544881  0.03555720700911
1   2.40235362318462  0.70575531496885  -0.01291319976469





