%nproc=4
%Mem=2Gb
# TD=(NStates=1) B3LYP/6-31G(d,p)  

EMISPCT

0 1
6   0.31244829067558  1.34181721863795  -0.08916163415147
6   1.35383581098560  0.35727816572571  0.09189717147392
6   1.03659512249609  -1.00616215714709  -0.02028257826662
6   -0.30972703157113  -1.37047857538603  -0.00346527603021
6   -1.34273759541381  -0.37302532705309  -0.02005105290099
6   -1.02890477139523  1.04071676865466  0.10826838636308
1   0.43364952966092  2.54508945906961  -0.45757349501920
1   -1.83696416013304  1.85976273785419  -0.03667297334533
1   -2.43479605561019  -0.61678222396907  -0.10504489922066
1   -0.67224752569615  -2.39064342958361  -0.28748666112194
1   1.82604781802885  -1.83466281379417  0.07376426574973
1   2.44278246728567  0.52760129164764  -0.10546546237476





