%nproc=4
%Mem=2Gb
# TD=(NStates=1) B3LYP/6-31G(d,p)  

EMISPCT

0 1
6   0.34229745333555  1.44008307477249  -0.04060207648670
6   1.38209977321334  0.38363971965080  0.05748188842059
6   0.98024481017684  -0.99910759643378  0.00892182081343
6   -0.35822884481293  -1.36951146635609  -0.03276756292601
6   -1.34110433020675  -0.42112881172988  0.03815750864872
6   -0.99057629665714  1.00322687196822  -0.03375814932007
1   0.64620796301827  2.52256416446274  -0.04384362081449
1   -1.91592373895578  1.50555425373362  0.06260269172600
1   -2.42322004308123  -0.73947562977076  0.35827652578667
1   -0.62189439335604  -2.38233998849043  -0.33746192935007
1   1.67621622842624  -1.88308881901637  0.00802631713195
1   2.44636275526601  0.53243312171238  -0.01253418286275





