%nproc=4
%Mem=2Gb
# TD=(NStates=1) B3LYP/6-31G(d,p)  

EMISPCT

0 1
6   0.41029393005504  1.39929750530078  -0.06628035726453
6   1.36525027221974  0.38620908216605  0.01718565712037
6   0.99906176628250  -0.98642715868170  0.03423811847407
6   -0.33123560641860  -1.41539685659255  -0.04128871803659
6   -1.41704693823545  -0.41225230036915  0.03219171379638
6   -1.03105143064563  1.00587793757744  0.02672598299166
1   0.68794602669800  2.45797555288639  -0.11344280816524
1   -1.80641819648626  1.74973675644135  -0.00411218637438
1   -2.49769403754774  -0.60519081012617  0.09372702886815
1   -0.57448834289039  -2.44722277446654  -0.16019912148298
1   1.78127742357592  -1.70192938759013  -0.16184795888894
1   2.45903554758858  0.81952671262671  0.30797495259826





