#n B3LYP/6-31G(d,p) OPT

   5

0 1
  C   -4.9329740    1.2424734    0.0005635
  C   -3.7961647    1.9423377    0.0006325
  C   -2.4825868    1.2664331    0.0003633
  C   -1.3445267    1.9729148    0.0004325
  C   -0.0300329    1.2976756    0.0001624
  C    1.1078363    2.0045788    0.0002293
  C    2.4225580    1.3298051   -0.0000420
  C    3.5601681    2.0370353    0.0000225
  C    4.8743185    1.3622890   -0.0002496
  C    6.0104412    2.0632909   -0.0001877
  H   -5.8874831    1.7588260    0.0007648
  H   -4.9249260    0.1564529    0.0003077
  H   -3.8470966    3.0278911    0.0008916
  H   -2.4443858    0.1794008    0.0001052
  H   -1.3838142    3.0599038    0.0006902
  H    0.0092864    0.2107004   -0.0000947
  H    1.0683572    3.0915467    0.0004859
  H    2.4624058    0.2428363   -0.0002980
  H    3.5211662    3.1240415    0.0002781
  H    4.9262644    0.2767893   -0.0005057
  H    6.0012875    3.1493129    0.0000645
  H    6.9654877    1.5479463   -0.0003914


